*Heading
** Job name: i3-over-all Model name: Model-1
** Generated by: Abaqus/CAE 6.10-1
*Preprint, echo=NO, model=NO, history=NO, contact=NO
**
** PARTS
**
*Part, name=bb-1
*Node
      1, 0.0350000001,         0.25,           0.
      2, 0.0299999993,         0.25,           0.
      3, 0.00999999978,         0.25,           0.
      4, 0.00499999989,         0.25,           0.
      5, -0.0149999997,         0.25,           0.
      6, -0.0199999996,         0.25,           0.
      7, -0.0399999991,         0.25,           0.
      8, -0.0450000018,         0.25,           0.
      9, -0.0649999976,         0.25,           0.
     10, -0.0700000003,         0.25,           0.
     11, -0.0900000036,         0.25,           0.
     12, 0.0549999997,         0.25,           0.
     13, 0.0599999987,         0.25,           0.
     14, 0.0799999982,         0.25,           0.
     15, 0.0850000009,  0.254999995,           0.
     16, -0.0900000036,  0.230000004,           0.
     17, -0.0949999988,  0.254999995,           0.
     18, -0.0949999988,  0.224999994,           0.
     19, -0.0700000003,  0.230000004,           0.
     20, -0.0649999976,  0.230000004,           0.
** ... 8067 like lines cut
*Element, type=C3D8H
  1, 3745, 3760, 3743,    1, 3959, 3974, 3957,   39
  2, 3760,  556,  555, 3743, 3974,  972,  973, 3957
  3,    2, 3761, 3760, 3745,   43, 3975, 3974, 3959
  4, 3761,  557,  556, 3760, 3975,  971,  972, 3974
  5,  653, 3762, 3761,    2,  731, 3976, 3975,   43
  6, 3762,  558,  557, 3761, 3976,  970,  971, 3975
  7,  652, 3763, 3762,  653,  732, 3977, 3976,  731
  8, 3763,  559,  558, 3762, 3977,  969,  970, 3976
  9,  651, 3764, 3763,  652,  733, 3978, 3977,  732
 10, 3764,  560,  559, 3763, 3978,  968,  969, 3977
 11,  650, 3765, 3764,  651,  734, 3979, 3978,  733
 12, 3765,  561,  560, 3764, 3979,  967,  968, 3978
 13,  649, 3766, 3765,  650,  735, 3980, 3979,  734
 14, 3766,  562,  561, 3765, 3980,  966,  967, 3979
 15,  648, 3767, 3766,  649,  736, 3981, 3980,  735
 16, 3767,  563,  562, 3766, 3981,  965,  966, 3980
 17,  647, 3768, 3767,  648,  737, 3982, 3981,  736
 18, 3768,  564,  563, 3767, 3982,  964,  965, 3981
 19,    3, 3769, 3768,  647,   44, 3983, 3982,  737
 20, 3769,  565,  564, 3768, 3983,  963,  964, 3982
** ... 2740 like lines cut
*Element, type=C3D8R
1601, 3745,    1, 3743, 3760, 5777,  168, 5775, 5792
1602, 3760, 3743,  555,  556, 5792, 5775, 1819, 1820
1603,    2, 3745, 3760, 3761,  165, 5777, 5792, 5793
1604, 3761, 3760,  556,  557, 5793, 5792, 1820, 1821
1605,  653,    2, 3761, 3762, 2064,  165, 5793, 5794
1606, 3762, 3761,  557,  558, 5794, 5793, 1821, 1822
1607,  652,  653, 3762, 3763, 2063, 2064, 5794, 5795
1608, 3763, 3762,  558,  559, 5795, 5794, 1822, 1823
1609,  651,  652, 3763, 3764, 2062, 2063, 5795, 5796
1610, 3764, 3763,  559,  560, 5796, 5795, 1823, 1824
1611,  650,  651, 3764, 3765, 2061, 2062, 5796, 5797
1612, 3765, 3764,  560,  561, 5797, 5796, 1824, 1825
1613,  649,  650, 3765, 3766, 2060, 2061, 5797, 5798
1614, 3766, 3765,  561,  562, 5798, 5797, 1825, 1826
1615,  648,  649, 3766, 3767, 2059, 2060, 5798, 5799
1616, 3767, 3766,  562,  563, 5799, 5798, 1826, 1827
1617,  647,  648, 3767, 3768, 2058, 2059, 5799, 5800
1618, 3768, 3767,  563,  564, 5800, 5799, 1827, 1828
1619,    3,  647, 3768, 3769,  164, 2058, 5800, 5801
1620, 3769, 3768,  564,  565, 5801, 5800, 1828, 1829
** ... 1428 like lines cut
*Nset, nset=frame-b
   32,   33,   63,   64,   74,   75,  131,  132,  205,  206,  207,  208,  209,  210,  211,  212
  213,  214,  219,  220,  225,  226,  227,  228,  229,  230,  231,  232,  233,  234,  235,  236
  237,  238,  239,  240,  241,  242,  243,  244,  245,  246,  251,  252,  257,  258,  259,  260
  261,  262,  263,  264,  265,  266,  267,  268,  269,  270,  271,  272,  277,  278,  279,  280
  285,  286,  287,  288,  293,  294,  295,  296,  301,  302,  303,  304,  305,  306,  307,  308
  309,  310,  311,  312,  313,  314,  315,  316,  485,  486,  487,  488,  489,  490,  491,  492
  493,  494,  495,  871,  872,  873,  874,  875,  876,  877,  878,  879,  880,  881, 1201, 1202
 1203, 1204, 1205, 1206, 1207, 1208, 1209, 1210, 1211, 1587, 1588, 1589, 1590, 1591, 1592, 1593
 1594, 1595, 1596, 1597, 2465, 2466, 2467, 2468, 2469, 2470, 2471, 2472, 2473, 2474, 2475, 2476
 2477, 2478, 2479, 2480, 2481, 2482, 2483, 2484, 2485, 2486, 2487, 2488, 2489, 2490, 2491, 2492
 2493, 2494, 2495, 2496, 2497, 2498, 2499, 2500, 2501, 2502, 2503, 2504, 2505, 2506, 2507, 2508
 2509, 2510, 2511, 2512, 2513, 2514, 2515, 2516, 2517, 2518, 2519, 2520, 2521, 2522, 2523, 2524
 2525, 2526, 2527, 2528, 2529, 2530, 2531, 2532, 2533, 2534, 2535, 2536, 2537, 2538, 2539, 2540
 2541, 2542, 2543, 2544, 2545, 2546, 2547, 2548, 2549, 2550, 2551, 2552, 2553, 2554, 2555, 2556
 2557, 2558, 2559, 2560, 2561, 2562, 2563, 2564, 2565, 2566, 2567, 2568, 2569, 2570, 2571, 2572
 2573, 2623, 2624, 2625, 2626, 2627, 2628, 2629, 2630, 2631, 2632, 2633, 2683, 2684, 2685, 2686
 2687, 2688, 2689, 2690, 2691, 2692, 2693, 2694, 2695, 2696, 2697, 2698, 2699, 2700, 2701, 2702
 2703, 2704, 2705, 2706, 2707, 2708, 2709, 2710, 2711, 2712, 2713, 2714, 2715, 2716, 2717, 2718
 2719, 2720, 2721, 2722, 2723, 2724, 2725, 2726, 2727, 2728, 2729, 2730, 2731, 2732, 2733, 2734
 2735, 2736, 2737, 2738, 2739, 2740, 2741, 2742, 2743, 2744, 2745, 2746, 2747, 2748, 2749, 2750
** ... 84 like lines cut
*Elset, elset=frame-b
 2569, 2570, 2571, 2572, 2573, 2574, 2575, 2576, 2577, 2578, 2579, 2580, 2581, 2582, 2583, 2584
 2585, 2586, 2587, 2588, 2589, 2590, 2591, 2592, 2593, 2594, 2595, 2596, 2597, 2598, 2599, 2600
 2601, 2602, 2603, 2604, 2605, 2606, 2607, 2608, 2609, 2610, 2611, 2612, 2613, 2614, 2615, 2616
 2617, 2618, 2619, 2620, 2621, 2622, 2623, 2624, 2625, 2626, 2627, 2628, 2629, 2630, 2631, 2632
 2633, 2634, 2635, 2636, 2637, 2638, 2639, 2640, 2641, 2642, 2643, 2644, 2645, 2646, 2647, 2648
 2649, 2650, 2651, 2652, 2653, 2654, 2655, 2656, 2657, 2658, 2659, 2660, 2661, 2662, 2663, 2664
 2665, 2666, 2667, 2668, 2669, 2670, 2671, 2672, 2673, 2674, 2675, 2676, 2677, 2678, 2679, 2680
 2681, 2682, 2683, 2684, 2685, 2686, 2687, 2688, 2689, 2690, 2691, 2692, 2693, 2694, 2695, 2696
 2697, 2698, 2699, 2700, 2701, 2702, 2703, 2704, 2705, 2706, 2707, 2708, 2709, 2710, 2711, 2712
 2713, 2714, 2715, 2716, 2717, 2718, 2719, 2720, 2721, 2722, 2723, 2724, 2725, 2726, 2727, 2728
 2865, 2866, 2867, 2868, 2869, 2870, 2871, 2872, 2873, 2874, 2875, 2876, 2877, 2878, 2879, 2880
 2881, 2882, 2883, 2884, 2885, 2886, 2887, 2888, 2889, 2890, 2891, 2892, 2893, 2894, 2895, 2896
 2897, 2898, 2899, 2900, 2901, 2902, 2903, 2904, 2905, 2906, 2907, 2908, 2909, 2910, 2911, 2912
 2913, 2914, 2915, 2916, 2917, 2918, 2919, 2920, 2921, 2922, 2923, 2924, 2925, 2926, 2927, 2928
 2929, 2930, 2931, 2932, 2933, 2934, 2935, 2936, 2937, 2938, 2939, 2940, 2941, 2942, 2943, 2944
 2945, 2946, 2947, 2948, 2949, 2950, 2951, 2952, 2953, 2954, 2955, 2956, 2957, 2958, 2959, 2960
 2961, 2962, 2963, 2964, 2965, 2966, 2967, 2968, 2969, 2970, 2971, 2972, 2973, 2974, 2975, 2976
 2977, 2978, 2979, 2980, 2981, 2982, 2983, 2984, 2985, 2986, 2987, 2988, 2989, 2990, 2991, 2992
 2993, 2994, 2995, 2996, 2997, 2998, 2999, 3000, 3001, 3002, 3003, 3004, 3005, 3006, 3007, 3008
 3009, 3010, 3011, 3012, 3013, 3014, 3015, 3016, 3017, 3018, 3019, 3020, 3021, 3022, 3023, 3024
** ... 19 like lines cut
*Nset, nset=rubber-f
    1,    2,    3,    4,    5,    6,    7,    8,    9,   10,   11,   12,   13,   14,   15,   16
   17,   18,   19,   20,   21,   22,   23,   24,   25,   26,   27,   28,   29,   30,   31,   32
   33,   34,   35,   36,   37,   38,   39,   40,   41,   42,   43,   44,   45,   46,   47,   48
   49,   50,   51,   52,   53,   54,   55,   56,   57,   58,   59,   60,   61,   62,   63,   64
   65,   66,   67,   68,   69,   70,   71,   72,   73,   74,   75,   76,   77,   78,   79,   80
   81,   82,   83,   84,   85,   86,   87,   88,   89,   90,   91,   92,   93,   94,   95,   96
   97,   98,   99,  100,  101,  102,  103,  104,  105,  106,  107,  108,  109,  110,  111,  112
  113,  114,  115,  116,  117,  118,  119,  120,  121,  122,  123,  124,  125,  126,  127,  128
  129,  130,  131,  132,  133,  134,  135,  136,  317,  318,  319,  320,  321,  322,  323,  324
  325,  326,  327,  328,  329,  330,  331,  332,  333,  334,  335,  336,  337,  338,  339,  340
  341,  342,  343,  344,  345,  346,  347,  348,  349,  350,  351,  352,  353,  354,  355,  356
  357,  358,  359,  360,  361,  362,  363,  364,  365,  366,  367,  368,  369,  370,  371,  372
  373,  374,  375,  376,  377,  378,  379,  380,  381,  382,  383,  384,  385,  386,  387,  388
  389,  390,  391,  392,  393,  394,  395,  396,  397,  398,  399,  400,  401,  402,  403,  404
  405,  406,  407,  408,  409,  410,  411,  412,  413,  414,  415,  416,  417,  418,  419,  420
  421,  422,  423,  424,  425,  426,  427,  428,  429,  430,  431,  432,  433,  434,  435,  436
  437,  438,  439,  440,  441,  442,  443,  444,  445,  446,  447,  448,  449,  450,  451,  452
  453,  454,  455,  456,  457,  458,  459,  460,  461,  462,  463,  464,  465,  466,  467,  468
  469,  470,  471,  472,  473,  474,  475,  476,  477,  478,  479,  480,  481,  482,  483,  484
  485,  486,  487,  488,  489,  490,  491,  492,  493,  494,  495,  496,  497,  498,  499,  500
** ... 218 like lines cut
*Elset, elset=rubber-f
    1,    2,    3,    4,    5,    6,    7,    8,    9,   10,   11,   12,   13,   14,   15,   16
   17,   18,   19,   20,   21,   22,   23,   24,   25,   26,   27,   28,   29,   30,   31,   32
   33,   34,   35,   36,   37,   38,   39,   40,   41,   42,   43,   44,   45,   46,   47,   48
   49,   50,   51,   52,   53,   54,   55,   56,   57,   58,   59,   60,   61,   62,   63,   64
   65,   66,   67,   68,   69,   70,   71,   72,   73,   74,   75,   76,   77,   78,   79,   80
   81,   82,   83,   84,   85,   86,   87,   88,   89,   90,   91,   92,   93,   94,   95,   96
   97,   98,   99,  100,  101,  102,  103,  104,  105,  106,  107,  108,  109,  110,  111,  112
  113,  114,  115,  116,  117,  118,  119,  120,  121,  122,  123,  124,  125,  126,  127,  128
  129,  130,  131,  132,  133,  134,  135,  136,  137,  138,  139,  140,  141,  142,  143,  144
  145,  146,  147,  148,  149,  150,  151,  152,  153,  154,  155,  156,  157,  158,  159,  160
  161,  162,  163,  164,  165,  166,  167,  168,  169,  170,  171,  172,  173,  174,  175,  176
  177,  178,  179,  180,  181,  182,  183,  184,  185,  186,  187,  188,  189,  190,  191,  192
  193,  194,  195,  196,  197,  198,  199,  200,  201,  202,  203,  204,  205,  206,  207,  208
  209,  210,  211,  212,  213,  214,  215,  216,  217,  218,  219,  220,  221,  222,  223,  224
  225,  226,  227,  228,  229,  230,  231,  232,  233,  234,  235,  236,  237,  238,  239,  240
  241,  242,  243,  244,  245,  246,  247,  248,  249,  250,  251,  252,  253,  254,  255,  256
  257,  258,  259,  260,  261,  262,  263,  264,  265,  266,  267,  268,  269,  270,  271,  272
  273,  274,  275,  276,  277,  278,  279,  280,  281,  282,  283,  284,  285,  286,  287,  288
  289,  290,  291,  292,  293,  294,  295,  296,  297,  298,  299,  300,  301,  302,  303,  304
  305,  306,  307,  308,  309,  310,  311,  312,  313,  314,  315,  316,  317,  318,  319,  320
** ... 88 like lines cut
*Nset, nset=frame-f
    1,    2,    3,    4,    5,    6,    7,    8,    9,   10,   11,   12,   13,   14,   15,   16
   17,   18,   19,   20,   21,   22,   23,   24,   25,   26,   27,   28,   29,   30,   31,   32
   33,   34,   69,   70,   71,   72,   73,   74,   75,   76,   77,   78,   79,   80,   81,   82
   83,   84,   85,   86,   87,   88,   89,   90,   91,   92,   93,   94,   95,   96,   97,   98
   99,  100,  101,  102,  137,  138,  139,  140,  141,  142,  143,  144,  145,  146,  147,  148
  149,  150,  151,  152,  153,  154,  155,  156,  157,  158,  159,  160,  161,  162,  163,  164
  165,  166,  167,  168,  169,  170,  171,  172,  173,  174,  175,  176,  177,  178,  179,  180
  181,  182,  183,  184,  185,  186,  187,  188,  189,  190,  191,  192,  193,  194,  195,  196
  197,  198,  199,  200,  201,  202,  203,  204,  317,  318,  319,  320,  321,  322,  323,  324
  325,  326,  327,  328,  329,  330,  331,  332,  333,  334,  335,  336,  337,  338,  339,  340
  341,  342,  343,  344,  345,  346,  347,  348,  349,  350,  351,  352,  353,  354,  355,  356
  357,  358,  359,  360,  361,  362,  363,  364,  365,  366,  367,  368,  369,  370,  371,  372
  373,  374,  375,  376,  377,  378,  379,  380,  381,  382,  383,  384,  385,  386,  387,  388
  389,  390,  391,  392,  393,  394,  395,  396,  397,  398,  399,  400,  401,  402,  403,  404
  405,  406,  407,  408,  409,  410,  411,  412,  413,  414,  415,  416,  417,  418,  419,  420
  421,  422,  423,  424,  425,  426,  427,  428,  429,  430,  431,  432,  433,  434,  435,  436
  437,  438,  439,  440,  441,  442,  443,  444,  445,  446,  447,  448,  449,  450,  451,  452
  453,  454,  455,  456,  457,  458,  459,  460,  461,  462,  463,  464,  465,  466,  467,  468
  469,  470,  471,  472,  473,  474,  475,  476,  477,  478,  479,  480,  481,  482,  483,  484
  485,  486,  487,  488,  489,  490,  491,  492,  493,  494,  495,  496,  497,  498,  499,  500
** ... 132 like lines cut
*Elset, elset=frame-f, generate
 1601,  2432,     1
*Nset, nset=rubber-bf
   32,   33,   74,   75,  137,  138,  171,  172,  205,  206,  207,  208,  209,  210,  211,  212
  213,  214,  215,  216,  217,  218,  219,  220,  221,  222,  223,  224,  237,  238,  239,  240
  241,  242,  243,  244,  245,  246,  247,  248,  249,  250,  251,  252,  253,  254,  255,  256
  485,  486,  487,  488,  489,  490,  491,  492,  493,  494,  495, 1201, 1202, 1203, 1204, 1205
 1206, 1207, 1208, 1209, 1210, 1211, 1749, 1750, 1751, 1752, 1753, 1754, 1755, 1756, 1757, 1758
 1759, 2107, 2108, 2109, 2110, 2111, 2112, 2113, 2114, 2115, 2116, 2117, 2465, 2466, 2467, 2468
 2469, 2470, 2471, 2472, 2473, 2474, 2475, 2476, 2477, 2478, 2479, 2480, 2481, 2482, 2483, 2484
 2485, 2486, 2487, 2488, 2489, 2490, 2491, 2492, 2493, 2494, 2495, 2496, 2497, 2498, 2499, 2500
 2501, 2502, 2503, 2504, 2505, 2506, 2507, 2508, 2509, 2510, 2511, 2512, 2513, 2514, 2515, 2516
 2517, 2518, 2519, 2520, 2521, 2522, 2523, 2524, 2525, 2526, 2527, 2528, 2529, 2530, 2531, 2532
 2533, 2534, 2535, 2536, 2537, 2538, 2539, 2540, 2541, 2542, 2543, 2544, 2545, 2546, 2547, 2548
 2549, 2550, 2551, 2552, 2553, 2554, 2555, 2556, 2557, 2558, 2559, 2560, 2561, 2562, 2563, 2564
 2565, 2566, 2567, 2568, 2569, 2570, 2571, 2572, 2573, 2574, 2575, 2576, 2577, 2578, 2579, 2580
 2581, 2582, 2583, 2584, 2585, 2586, 2587, 2588, 2589, 2590, 2591, 2592, 2593, 2594, 2595, 2596
 2597, 2598, 2599, 2600, 2601, 2602, 2603, 2604, 2605, 2606, 2607, 2608, 2609, 2610, 2611, 2612
 2613, 2614, 2615, 2616, 2617, 2618, 2619, 2620, 2621, 2622, 2623, 2624, 2625, 2626, 2627, 2628
 2629, 2630, 2631, 2632, 2633, 2634, 2635, 2636, 2637, 2638, 2639, 2640, 2641, 2642, 2643, 2644
 2645, 2646, 2647, 2648, 2649, 2650, 2651, 2652, 2653, 2654, 2655, 2656, 2657, 2658, 2659, 2660
 2661, 2662, 2663, 2664, 2665, 2666, 2667, 2668, 2669, 2670, 2671, 2672, 2673, 2674, 2675, 2676
 2677, 2678, 2679, 2680, 2681, 2682, 2809, 2810, 2811, 2812, 2813, 2814, 2815, 2816, 2817, 2818
** ... 55 like lines cut
*Elset, elset=rubber-bf
 2433, 2434, 2435, 2436, 2437, 2438, 2439, 2440, 2441, 2442, 2443, 2444, 2445, 2446, 2447, 2448
 2449, 2450, 2451, 2452, 2453, 2454, 2455, 2456, 2457, 2458, 2459, 2460, 2461, 2462, 2463, 2464
 2465, 2466, 2467, 2468, 2469, 2470, 2471, 2472, 2473, 2474, 2475, 2476, 2477, 2478, 2479, 2480
 2481, 2482, 2483, 2484, 2485, 2486, 2487, 2488, 2489, 2490, 2491, 2492, 2493, 2494, 2495, 2496
 2497, 2498, 2499, 2500, 2501, 2502, 2503, 2504, 2505, 2506, 2507, 2508, 2509, 2510, 2511, 2512
 2513, 2514, 2515, 2516, 2517, 2518, 2519, 2520, 2521, 2522, 2523, 2524, 2525, 2526, 2527, 2528
 2529, 2530, 2531, 2532, 2533, 2534, 2535, 2536, 2537, 2538, 2539, 2540, 2541, 2542, 2543, 2544
 2545, 2546, 2547, 2548, 2549, 2550, 2551, 2552, 2553, 2554, 2555, 2556, 2557, 2558, 2559, 2560
 2561, 2562, 2563, 2564, 2565, 2566, 2567, 2568, 2729, 2730, 2731, 2732, 2733, 2734, 2735, 2736
 2737, 2738, 2739, 2740, 2741, 2742, 2743, 2744, 2745, 2746, 2747, 2748, 2749, 2750, 2751, 2752
 2753, 2754, 2755, 2756, 2757, 2758, 2759, 2760, 2761, 2762, 2763, 2764, 2765, 2766, 2767, 2768
 2769, 2770, 2771, 2772, 2773, 2774, 2775, 2776, 2777, 2778, 2779, 2780, 2781, 2782, 2783, 2784
 2785, 2786, 2787, 2788, 2789, 2790, 2791, 2792, 2793, 2794, 2795, 2796, 2797, 2798, 2799, 2800
 2801, 2802, 2803, 2804, 2805, 2806, 2807, 2808, 2809, 2810, 2811, 2812, 2813, 2814, 2815, 2816
 2817, 2818, 2819, 2820, 2821, 2822, 2823, 2824, 2825, 2826, 2827, 2828, 2829, 2830, 2831, 2832
 2833, 2834, 2835, 2836, 2837, 2838, 2839, 2840, 2841, 2842, 2843, 2844, 2845, 2846, 2847, 2848
 2849, 2850, 2851, 2852, 2853, 2854, 2855, 2856, 2857, 2858, 2859, 2860, 2861, 2862, 2863, 2864
 3089, 3090, 3091, 3092, 3093, 3094, 3095, 3096, 3097, 3098, 3099, 3100, 3101, 3102, 3103, 3104
 3105, 3106, 3107, 3108, 3109, 3110, 3111, 3112, 3113, 3114, 3115, 3116, 3117, 3118, 3119, 3120
 3121, 3122, 3123, 3124, 3125, 3126, 3127, 3128, 3129, 3130, 3131, 3132, 3133, 3134, 3135, 3136
** ... 13 like lines cut
*Nset, nset=rubber-b
  225,  226,  227,  228,  257,  258,  259,  260,  269,  270,  271,  272,  273,  274,  275,  276
  277,  278,  279,  280,  281,  282,  283,  284,  285,  286,  287,  288,  289,  290,  291,  292
  293,  294,  295,  296,  297,  298,  299,  300, 2684, 2685, 2686, 2687, 2688, 2689, 2690, 2691
 2692, 2693, 2694, 2719, 2720, 2721, 2722, 2723, 2724, 2725, 2726, 2727, 2728, 2729, 3028, 3029
 3030, 3031, 3032, 3033, 3034, 3035, 3036, 3037, 3038, 3063, 3064, 3065, 3066, 3067, 3068, 3069
 3070, 3071, 3072, 3073, 3153, 3154, 3155, 3156, 3157, 3158, 3159, 3160, 3161, 3162, 3163, 3164
 3165, 3166, 3167, 3168, 3169, 3170, 3171, 3172, 3173, 3174, 3175, 3176, 3177, 3178, 3179, 3180
 3181, 3182, 3183, 3184, 3185, 3186, 3187, 3188, 3189, 3190, 3191, 3192, 3193, 3194, 3195, 3196
 3197, 3198, 3199, 3200, 3201, 3202, 3203, 3204, 3205, 3206, 3207, 3208, 3209, 3210, 3211, 3212
 3213, 3214, 3215, 3216, 3217, 3218, 3219, 3220, 3221, 3222, 3223, 3224, 3225, 3226, 3227, 3228
 3229, 3230, 3231, 3232, 3233, 3234, 3235, 3236, 3237, 3238, 3239, 3240, 3241, 3242, 3243, 3244
 3245, 3246, 3247, 3248, 3249, 3250, 3251, 3252, 3253, 3254, 3255, 3256, 3257, 3258, 3259, 3260
 3261, 3262, 3263, 3264, 3265, 3266, 3267, 3268, 3269, 3270, 3271, 3272, 3273, 3274, 3275, 3276
 3277, 3278, 3279, 3280, 3281, 3282, 3283, 3284, 3285, 3286, 3287, 3288, 3289, 3290, 3291, 3292
 3293, 3294, 3295, 3296, 3297, 3298, 3299, 3300, 3301, 3302, 3303, 3304, 3305, 3306, 3307, 3308
 3309, 3310, 3311, 3312, 3313, 3314, 3315, 3316, 3317, 3318, 3319, 3320, 3321, 3322, 3323, 3324
 3325, 3326, 3327, 3328, 3329, 3330, 3331, 3332, 3333, 3334, 3335, 3336, 3337, 3338, 3339, 3340
 3341, 3342, 3343, 3344, 3345, 3346, 3347, 3348, 3349, 3350, 3351, 3352, 3353, 3354, 3355, 3356
 3357, 3358, 3359, 3360, 3361, 3362, 3363, 3364, 3365, 3366, 3367, 3368, 3369, 3370, 3371, 3372
 3373, 3374, 3375, 3376, 3377, 3378, 3379, 3380, 3381, 3382, 3383, 3384, 3385, 3386, 3387, 3388
** ... 50 like lines cut
*Elset, elset=rubber-b
 3281, 3282, 3283, 3284, 3285, 3286, 3287, 3288, 3289, 3290, 3291, 3292, 3293, 3294, 3295, 3296
 3297, 3298, 3299, 3300, 3301, 3302, 3303, 3304, 3305, 3306, 3307, 3308, 3309, 3310, 3311, 3312
 3313, 3314, 3315, 3316, 3317, 3318, 3319, 3320, 3321, 3322, 3323, 3324, 3325, 3326, 3327, 3328
 3329, 3330, 3331, 3332, 3333, 3334, 3335, 3336, 3337, 3338, 3339, 3340, 3341, 3342, 3343, 3344
 3345, 3346, 3347, 3348, 3349, 3350, 3351, 3352, 3353, 3354, 3355, 3356, 3357, 3358, 3359, 3360
 3361, 3362, 3363, 3364, 3365, 3366, 3367, 3368, 3369, 3370, 3371, 3372, 3373, 3374, 3375, 3376
 3377, 3378, 3379, 3380, 3381, 3382, 3383, 3384, 3385, 3386, 3387, 3388, 3389, 3390, 3391, 3392
 3393, 3394, 3395, 3396, 3397, 3398, 3399, 3400, 3401, 3402, 3403, 3404, 3405, 3406, 3407, 3408
 3409, 3410, 3411, 3412, 3413, 3414, 3415, 3416, 3417, 3418, 3419, 3420, 3421, 3422, 3423, 3424
 3425, 3426, 3427, 3428, 3429, 3430, 3431, 3432, 3433, 3434, 3435, 3436, 3437, 3438, 3439, 3440
 3441, 3442, 3443, 3444, 3445, 3446, 3447, 3448, 3449, 3450, 3451, 3452, 3453, 3454, 3455, 3456
 3457, 3458, 3459, 3460, 3461, 3462, 3463, 3464, 3465, 3466, 3467, 3468, 3469, 3470, 3471, 3472
 3473, 3474, 3475, 3476, 3477, 3478, 3479, 3480, 3481, 3482, 3483, 3484, 3485, 3486, 3487, 3488
 3489, 3490, 3491, 3492, 3493, 3494, 3495, 3496, 3497, 3498, 3499, 3500, 3501, 3502, 3503, 3504
 3505, 3506, 3507, 3508, 3509, 3510, 3511, 3512, 3513, 3514, 3515, 3516, 3517, 3518, 3519, 3520
 3521, 3522, 3523, 3524, 3525, 3526, 3527, 3528, 3529, 3530, 3531, 3532, 3533, 3534, 3535, 3536
 3897, 3898, 3899, 3900, 3901, 3902, 3903, 3904, 3905, 3906, 3907, 3908, 3909, 3910, 3911, 3912
 3913, 3914, 3915, 3916, 3917, 3918, 3919, 3920, 3921, 3922, 3923, 3924, 3925, 3926, 3927, 3928
 3929, 3930, 3931, 3932, 3933, 3934, 3935, 3936, 3937, 3938, 3939, 3940, 3941, 3942, 3943, 3944
 3945, 3946, 3947, 3948, 3949, 3950, 3951, 3952, 3953, 3954, 3955, 3956, 3957, 3958, 3959, 3960
** ... 12 like lines cut
** Section: Section-4
*Solid Section, elset=rubber-f, material=DE-umat-ff
,
** Section: Section-6
*Solid Section, elset=frame-f, material=sub-ABS
,
** Section: Section-3
*Solid Section, elset=rubber-bf, material=DE-umat-f
,
** Section: Section-1
*Solid Section, elset=frame-b, material=ABS
,
** Section: Section-2
*Solid Section, elset=rubber-b, material=DE-umat-b
,
*End Part
**  
*Part, name=rr
*Node
      1, -0.0100134425, 0.0438717566,           0.
      2, -0.019524768, 0.0405436009,           0.
      3, -0.0280570406, 0.0351824164,           0.
      4, -0.0405436009,  0.019524768,           0.
      5, -0.0438717566, 0.0100134425,           0.
      6, -0.0450000018,           0.,           0.
      7, -0.0438717566, -0.0100134425,           0.
      8, -0.0405436009, -0.019524768,           0.
      9, -0.0351824164, -0.0280570406,           0.
     10, -0.019524768, -0.0405436009,           0.
     11, -0.0100134425, -0.0438717566,           0.
     12,           0., -0.0450000018,           0.
     13, 0.0100134425, -0.0438717566,           0.
     14,  0.019524768, -0.0405436009,           0.
     15, 0.0280570406, -0.0351824164,           0.
     16, 0.0405436009, -0.019524768,           0.
     17, 0.0438717566, -0.0100134425,           0.
     18, 0.0450000018,           0.,           0.
     19, 0.0438717566, 0.0100134425,           0.
     20, 0.0405436009,  0.019524768,           0.
** ... 4326 like lines cut
*Element, type=C3D8R
   1,  135,  130,  129,  191,   29,   24,   23,   85
   2,  130,  135,  136,  107,   24,   29,   30,    1
   3,  129,  128,  137,  191,   23,   22,   31,   85
   4,  108,  107,  136,  155,    2,    1,   30,   49
   5,  195,  160,  144,  158,   89,   54,   38,   52
   6,  119,  118,  145,  189,   13,   12,   39,   83
   7,  197,  161,  148,  157,   91,   55,   42,   51
   8,  161,  197,  162,  206,   55,   91,   56,  100
   9,  206,  162,  198,  178,  100,   56,   92,   72
  10,  169,  201,  190,  189,   63,   95,   84,   83
  11,  193,  163,  139,  140,   87,   57,   33,   34
  12,  138,  170,  168,  137,   32,   64,   62,   31
  13,  141,  142,  194,  164,   35,   36,   88,   58
  14,  163,  193,  164,  182,   57,   87,   58,   76
  15,  144,  160,  165,  143,   38,   54,   59,   37
  16,  147,  196,  166,  146,   41,   90,   60,   40
  17,  174,  196,  161,  206,   68,   90,   55,  100
  18,  200,  171,  154,  156,   94,   65,   48,   50
  19,  153,  152,  111,  110,   47,   46,    5,    4
  20,  170,  138,  159,  192,   64,   32,   53,   86
** ... 3620 like lines cut
*Nset, nset=_PickedSet2, internal, generate
    1,  4346,     1
*Elset, elset=_PickedSet2, internal, generate
    1,  3640,     1
** Section: Section-5
*Solid Section, elset=_PickedSet2, material=rr
,
*End Part
**  
**
** ASSEMBLY
**
*Assembly, name=Assembly
**  
*Instance, name=bb-1-1, part=bb-1
*End Instance
**  
*Instance, name=rr-1, part=rr
      -0.005,        0.005,       -0.211
      -0.005,        0.005,       -0.211,       -1.005,        0.005,       -0.211,          90.
*End Instance
**  
*Nset, nset=_PickedSet8, internal, instance=rr-1, generate
   1,  106,    1
*Elset, elset=_PickedSet8, internal, instance=rr-1, generate
  1,  91,   1
*Nset, nset=_PickedSet13, internal, instance=bb-1-1
   69,   72,   76,   92,   93,   94,   99,  100,  103,  104,  105,  106,  127,  128,  129,  130
 1061, 1062, 1063, 1064, 1065, 1066, 1067, 1068, 1069, 1070, 1071, 1072, 1073, 1074, 1075, 1076
 1077, 1078, 1079, 1080, 1081, 1082, 1083, 1084, 1085, 1086, 1087, 1088, 1173, 1174, 1175, 1176
 1177, 1178, 1179, 1180, 1181, 1182, 1183, 1184, 1185, 1186, 1187, 1188, 1189, 1190, 1191, 1192
 1193, 1194, 1195, 1196, 1197, 1198, 1199, 1200, 1391, 1392, 1393, 1394, 1395, 1396, 1397, 1398
 1399, 1400, 1401, 1402, 1403, 1404, 1405, 1406, 1407, 1408, 1409, 1410, 1411, 1412, 1413, 1414
 1415, 1416, 1417, 1418, 1559, 1560, 1561, 1562, 1563, 1564, 1565, 1566, 1567, 1568, 1569, 1570
 1571, 1572, 1573, 1574, 1575, 1576, 1577, 1578, 1579, 1580, 1581, 1582, 1583, 1584, 1585, 1586
 5285, 5286, 5287, 5288, 5289, 5290, 5291, 5292, 5293, 5294, 5295, 5296, 5297, 5298, 5299, 5300
 5301, 5302, 5303, 5304, 5305, 5306, 5307, 5308, 5309, 5310, 5311, 5312, 5313, 5314, 5315, 5316
 5317, 5318, 5319, 5320, 5321, 5322, 5323, 5324, 5325, 5326, 5327, 5328, 5329, 5330, 5331, 5332
 5333, 5334, 5335, 5336, 5337, 5338, 5339, 5340, 5341, 5342, 5343, 5344, 5345, 5346, 5347, 5348
 5349, 5350, 5351, 5352, 5353, 5354, 5355, 5356, 5357, 5358, 5359, 5360, 5361, 5362, 5363, 5364
 5365, 5366, 5367, 5368, 5369, 5370, 5371, 5372, 5373, 5374, 5375, 5376, 5377, 5378, 5379, 5380
 5381, 5382, 5677, 5678, 5679, 5680, 5681, 5682, 5683, 5684, 5685, 5686, 5687, 5688, 5689, 5690
 5691, 5692, 5693, 5694, 5695, 5696, 5697, 5698, 5699, 5700, 5701, 5702, 5703, 5704, 5705, 5706
 5707, 5708, 5709, 5710, 5711, 5712, 5713, 5714, 5715, 5716, 5717, 5718, 5719, 5720, 5721, 5722
 5723, 5724, 5725, 5726, 5727, 5728, 5729, 5730, 5731, 5732, 5733, 5734, 5735, 5736, 5737, 5738
 5739, 5740, 5741, 5742, 5743, 5744, 5745, 5746, 5747, 5748, 5749, 5750, 5751, 5752, 5753, 5754
 5755, 5756, 5757, 5758, 5759, 5760, 5761, 5762, 5763, 5764, 5765, 5766, 5767, 5768, 5769, 5770
 5771, 5772, 5773, 5774
*Elset, elset=_PickedSet13, internal, instance=bb-1-1
 1281, 1282, 1283, 1284, 1285, 1286, 1287, 1288, 1289, 1290, 1291, 1292, 1293, 1294, 1295, 1296
 1297, 1298, 1299, 1300, 1301, 1302, 1303, 1304, 1305, 1306, 1307, 1308, 1309, 1310, 1311, 1312
 1313, 1314, 1315, 1316, 1317, 1318, 1319, 1320, 1321, 1322, 1323, 1324, 1325, 1326, 1327, 1328
 1329, 1330, 1331, 1332, 1333, 1334, 1335, 1336, 1337, 1338, 1339, 1340, 1341, 1342, 1343, 1344
 1537, 1538, 1539, 1540, 1541, 1542, 1543, 1544, 1545, 1546, 1547, 1548, 1549, 1550, 1551, 1552
 1553, 1554, 1555, 1556, 1557, 1558, 1559, 1560, 1561, 1562, 1563, 1564, 1565, 1566, 1567, 1568
 1569, 1570, 1571, 1572, 1573, 1574, 1575, 1576, 1577, 1578, 1579, 1580, 1581, 1582, 1583, 1584
 1585, 1586, 1587, 1588, 1589, 1590, 1591, 1592, 1593, 1594, 1595, 1596, 1597, 1598, 1599, 1600
*Nset, nset=_PickedSet14, internal, instance=bb-1-1
   70,   71,   77,   78,   79,   80,   81,   82,   83,   85,   86,   87,   88,   89,   90,   91
   95,   96,   97,   98,  107,  108,  109,  110,  111,  112,  113,  114,  115,  116,  117,  118
  119,  120,  121,  122,  123,  124,  125,  126, 1033, 1034, 1035, 1036, 1037, 1038, 1039, 1040
 1041, 1042, 1043, 1044, 1045, 1046, 1047, 1048, 1049, 1050, 1051, 1052, 1053, 1054, 1055, 1056
 1057, 1058, 1059, 1060, 1089, 1090, 1091, 1092, 1093, 1094, 1095, 1096, 1097, 1098, 1099, 1100
 1101, 1102, 1103, 1104, 1105, 1106, 1107, 1108, 1109, 1110, 1111, 1112, 1113, 1114, 1115, 1116
 1117, 1118, 1119, 1120, 1121, 1122, 1123, 1124, 1125, 1126, 1127, 1128, 1129, 1130, 1131, 1132
 1133, 1134, 1135, 1136, 1137, 1138, 1139, 1140, 1141, 1142, 1143, 1144, 1145, 1146, 1147, 1148
 1149, 1150, 1151, 1152, 1153, 1154, 1155, 1156, 1157, 1158, 1159, 1160, 1161, 1162, 1163, 1164
 1165, 1166, 1167, 1168, 1169, 1170, 1171, 1172, 1363, 1364, 1365, 1366, 1367, 1368, 1369, 1370
 1371, 1372, 1373, 1374, 1375, 1376, 1377, 1378, 1379, 1380, 1381, 1382, 1383, 1384, 1385, 1386
 1387, 1388, 1389, 1390, 1419, 1420, 1421, 1422, 1423, 1424, 1425, 1426, 1427, 1428, 1429, 1430
 1431, 1432, 1433, 1434, 1435, 1436, 1437, 1438, 1439, 1440, 1441, 1442, 1443, 1444, 1445, 1446
 1447, 1448, 1449, 1450, 1451, 1452, 1453, 1454, 1455, 1456, 1457, 1458, 1459, 1460, 1461, 1462
 1463, 1464, 1465, 1466, 1467, 1468, 1469, 1470, 1471, 1472, 1473, 1474, 1475, 1476, 1477, 1478
 1479, 1480, 1481, 1482, 1483, 1484, 1485, 1486, 1487, 1488, 1489, 1490, 1491, 1492, 1493, 1494
 1495, 1496, 1497, 1498, 1499, 1500, 1501, 1502, 1503, 1504, 1505, 1506, 1507, 1508, 1509, 1510
 1511, 1512, 1513, 1514, 1515, 1516, 1517, 1518, 1519, 1520, 1521, 1522, 1523, 1524, 1525, 1526
 1527, 1528, 1529, 1530, 1531, 1532, 1533, 1534, 1535, 1536, 1537, 1538, 1539, 1540, 1541, 1542
 1543, 1544, 1545, 1546, 1547, 1548, 1549, 1550, 1551, 1552, 1553, 1554, 1555, 1556, 1557, 1558
** ... 31 like lines cut
*Elset, elset=_PickedSet14, internal, instance=bb-1-1
 1217, 1218, 1219, 1220, 1221, 1222, 1223, 1224, 1225, 1226, 1227, 1228, 1229, 1230, 1231, 1232
 1233, 1234, 1235, 1236, 1237, 1238, 1239, 1240, 1241, 1242, 1243, 1244, 1245, 1246, 1247, 1248
 1249, 1250, 1251, 1252, 1253, 1254, 1255, 1256, 1257, 1258, 1259, 1260, 1261, 1262, 1263, 1264
 1265, 1266, 1267, 1268, 1269, 1270, 1271, 1272, 1273, 1274, 1275, 1276, 1277, 1278, 1279, 1280
 1345, 1346, 1347, 1348, 1349, 1350, 1351, 1352, 1353, 1354, 1355, 1356, 1357, 1358, 1359, 1360
 1361, 1362, 1363, 1364, 1365, 1366, 1367, 1368, 1369, 1370, 1371, 1372, 1373, 1374, 1375, 1376
 1377, 1378, 1379, 1380, 1381, 1382, 1383, 1384, 1385, 1386, 1387, 1388, 1389, 1390, 1391, 1392
 1393, 1394, 1395, 1396, 1397, 1398, 1399, 1400, 1401, 1402, 1403, 1404, 1405, 1406, 1407, 1408
 1409, 1410, 1411, 1412, 1413, 1414, 1415, 1416, 1417, 1418, 1419, 1420, 1421, 1422, 1423, 1424
 1425, 1426, 1427, 1428, 1429, 1430, 1431, 1432, 1433, 1434, 1435, 1436, 1437, 1438, 1439, 1440
 1441, 1442, 1443, 1444, 1445, 1446, 1447, 1448, 1449, 1450, 1451, 1452, 1453, 1454, 1455, 1456
 1457, 1458, 1459, 1460, 1461, 1462, 1463, 1464, 1465, 1466, 1467, 1468, 1469, 1470, 1471, 1472
 1473, 1474, 1475, 1476, 1477, 1478, 1479, 1480, 1481, 1482, 1483, 1484, 1485, 1486, 1487, 1488
 1489, 1490, 1491, 1492, 1493, 1494, 1495, 1496, 1497, 1498, 1499, 1500, 1501, 1502, 1503, 1504
 1505, 1506, 1507, 1508, 1509, 1510, 1511, 1512, 1513, 1514, 1515, 1516, 1517, 1518, 1519, 1520
 1521, 1522, 1523, 1524, 1525, 1526, 1527, 1528, 1529, 1530, 1531, 1532, 1533, 1534, 1535, 1536
 3025, 3026, 3027, 3028, 3029, 3030, 3031, 3032, 3033, 3034, 3035, 3036, 3037, 3038, 3039, 3040
 3041, 3042, 3043, 3044, 3045, 3046, 3047, 3048, 3049, 3050, 3051, 3052, 3053, 3054, 3055, 3056
 3057, 3058, 3059, 3060, 3061, 3062, 3063, 3064, 3065, 3066, 3067, 3068, 3069, 3070, 3071, 3072
 3073, 3074, 3075, 3076, 3077, 3078, 3079, 3080, 3081, 3082, 3083, 3084, 3085, 3086, 3087, 3088
*Nset, nset=_PickedSet15, internal, instance=bb-1-1
  205,  206,  207,  213,  215,  216,  217,  218, 2518, 2519, 2520, 2521, 2522, 2523, 2524, 2525
 2526, 2527, 2528, 2529, 2530, 2531, 2532, 2533, 2534, 2535, 2536, 2537, 2538, 2539, 2540, 2541
 2542, 2543, 2544, 2545, 2574, 2575, 2576, 2577, 2578, 2579, 2580, 2581, 2582, 2583, 2584, 2585
 2586, 2587, 2588, 2589, 2590, 2591, 2592, 2593, 2594, 2595, 2596, 2597, 2598, 2599, 2600, 2601
 6781, 6782, 6783, 6784, 6785, 6786, 6787, 6788, 6789, 6790, 6791, 6792, 6793, 6794, 6795, 6796
 6797, 6798, 6799, 6800, 6801, 6802, 6803, 6804, 6805, 6806, 6807, 6808, 6809, 6810, 6811, 6812
 6813, 6814, 6815, 6816, 6817, 6818, 6819, 6820, 6821, 6822, 6823, 6824, 6825, 6826, 6827, 6828
 6829, 6830, 6831, 6832, 6833, 6834, 6835, 6836, 6837, 6838, 6839, 6840, 6841, 6842, 6843, 6844
 6845, 6846, 6847, 6848, 6849, 6850, 6851, 6852, 6853, 6854, 6855, 6856, 6857, 6858, 6859, 6860
 6861, 6862, 6863, 6864, 6865, 6866, 6867, 6868, 6869, 6870, 6871, 6872, 6873, 6874, 6875, 6876
 6877, 6878
*Elset, elset=_PickedSet15, internal, instance=bb-1-1, generate
 3089,  3152,     1
*Nset, nset=_PickedSet16, internal, instance=bb-1-1
  208,  209,  211,  212,  221,  222,  223,  224, 2546, 2547, 2548, 2549, 2550, 2551, 2552, 2553
 2554, 2555, 2556, 2557, 2558, 2559, 2560, 2561, 2562, 2563, 2564, 2565, 2566, 2567, 2568, 2569
 2570, 2571, 2572, 2573, 2655, 2656, 2657, 2658, 2659, 2660, 2661, 2662, 2663, 2664, 2665, 2666
 2667, 2668, 2669, 2670, 2671, 2672, 2673, 2674, 2675, 2676, 2677, 2678, 2679, 2680, 2681, 2682
 7990, 7991, 7992, 7993, 7994, 7995, 7996, 7997, 7998, 7999, 8000, 8001, 8002, 8003, 8004, 8005
 8006, 8007, 8008, 8009, 8010, 8011, 8012, 8013, 8014, 8015, 8016, 8017, 8018, 8019, 8020, 8021
 8022, 8023, 8024, 8025, 8026, 8027, 8028, 8029, 8030, 8031, 8032, 8033, 8034, 8035, 8036, 8037
 8038, 8039, 8040, 8041, 8042, 8043, 8044, 8045, 8046, 8047, 8048, 8049, 8050, 8051, 8052, 8053
 8054, 8055, 8056, 8057, 8058, 8059, 8060, 8061, 8062, 8063, 8064, 8065, 8066, 8067, 8068, 8069
 8070, 8071, 8072, 8073, 8074, 8075, 8076, 8077, 8078, 8079, 8080, 8081, 8082, 8083, 8084, 8085
 8086, 8087
*Elset, elset=_PickedSet16, internal, instance=bb-1-1, generate
 4145,  4208,     1
*Nset, nset=_PickedSet17, internal, instance=bb-1-1
  269,  270,  271,  272,  273,  274,  275,  276, 3153, 3154, 3155, 3156, 3157, 3158, 3159, 3160
 3161, 3162, 3163, 3164, 3165, 3166, 3167, 3168, 3169, 3170, 3171, 3172, 3173, 3174, 3175, 3176
 3177, 3178, 3179, 3180, 3181, 3182, 3183, 3184, 3185, 3186, 3187, 3188, 3189, 3190, 3191, 3192
 3193, 3194, 3195, 3196, 3197, 3198, 3199, 3200, 3201, 3202, 3203, 3204, 3205, 3206, 3207, 3208
 7075, 7076, 7077, 7078, 7079, 7080, 7081, 7082, 7083, 7084, 7085, 7086, 7087, 7088, 7089, 7090
 7091, 7092, 7093, 7094, 7095, 7096, 7097, 7098, 7099, 7100, 7101, 7102, 7103, 7104, 7105, 7106
 7107, 7108, 7109, 7110, 7111, 7112, 7113, 7114, 7115, 7116, 7117, 7118, 7119, 7120, 7121, 7122
 7123, 7124, 7125, 7126, 7127, 7128, 7129, 7130, 7131, 7132, 7133, 7134, 7135, 7136, 7137, 7138
 7139, 7140, 7141, 7142, 7143, 7144, 7145, 7146, 7147, 7148, 7149, 7150, 7151, 7152, 7153, 7154
 7155, 7156, 7157, 7158, 7159, 7160, 7161, 7162, 7163, 7164, 7165, 7166, 7167, 7168, 7169, 7170
 7171, 7172
*Elset, elset=_PickedSet17, internal, instance=bb-1-1, generate
 3281,  3344,     1
*Nset, nset=_PickedSet18, internal, instance=bb-1-1
  277,  278,  279,  280,  281,  282,  283,  284, 3209, 3210, 3211, 3212, 3213, 3214, 3215, 3216
 3217, 3218, 3219, 3220, 3221, 3222, 3223, 3224, 3225, 3226, 3227, 3228, 3229, 3230, 3231, 3232
 3233, 3234, 3235, 3236, 3237, 3238, 3239, 3240, 3241, 3242, 3243, 3244, 3245, 3246, 3247, 3248
 3249, 3250, 3251, 3252, 3253, 3254, 3255, 3256, 3257, 3258, 3259, 3260, 3261, 3262, 3263, 3264
 7173, 7174, 7175, 7176, 7177, 7178, 7179, 7180, 7181, 7182, 7183, 7184, 7185, 7186, 7187, 7188
 7189, 7190, 7191, 7192, 7193, 7194, 7195, 7196, 7197, 7198, 7199, 7200, 7201, 7202, 7203, 7204
 7205, 7206, 7207, 7208, 7209, 7210, 7211, 7212, 7213, 7214, 7215, 7216, 7217, 7218, 7219, 7220
 7221, 7222, 7223, 7224, 7225, 7226, 7227, 7228, 7229, 7230, 7231, 7232, 7233, 7234, 7235, 7236
 7237, 7238, 7239, 7240, 7241, 7242, 7243, 7244, 7245, 7246, 7247, 7248, 7249, 7250, 7251, 7252
 7253, 7254, 7255, 7256, 7257, 7258, 7259, 7260, 7261, 7262, 7263, 7264, 7265, 7266, 7267, 7268
 7269, 7270
*Elset, elset=_PickedSet18, internal, instance=bb-1-1, generate
 3345,  3408,     1
*Nset, nset=_PickedSet19, internal, instance=bb-1-1
  285,  286,  287,  288,  289,  290,  291,  292, 3265, 3266, 3267, 3268, 3269, 3270, 3271, 3272
 3273, 3274, 3275, 3276, 3277, 3278, 3279, 3280, 3281, 3282, 3283, 3284, 3285, 3286, 3287, 3288
 3289, 3290, 3291, 3292, 3293, 3294, 3295, 3296, 3297, 3298, 3299, 3300, 3301, 3302, 3303, 3304
 3305, 3306, 3307, 3308, 3309, 3310, 3311, 3312, 3313, 3314, 3315, 3316, 3317, 3318, 3319, 3320
 7271, 7272, 7273, 7274, 7275, 7276, 7277, 7278, 7279, 7280, 7281, 7282, 7283, 7284, 7285, 7286
 7287, 7288, 7289, 7290, 7291, 7292, 7293, 7294, 7295, 7296, 7297, 7298, 7299, 7300, 7301, 7302
 7303, 7304, 7305, 7306, 7307, 7308, 7309, 7310, 7311, 7312, 7313, 7314, 7315, 7316, 7317, 7318
 7319, 7320, 7321, 7322, 7323, 7324, 7325, 7326, 7327, 7328, 7329, 7330, 7331, 7332, 7333, 7334
 7335, 7336, 7337, 7338, 7339, 7340, 7341, 7342, 7343, 7344, 7345, 7346, 7347, 7348, 7349, 7350
 7351, 7352, 7353, 7354, 7355, 7356, 7357, 7358, 7359, 7360, 7361, 7362, 7363, 7364, 7365, 7366
 7367, 7368
*Elset, elset=_PickedSet19, internal, instance=bb-1-1, generate
 3409,  3472,     1
*Nset, nset=_PickedSet20, internal, instance=bb-1-1
  293,  294,  295,  296,  297,  298,  299,  300, 3321, 3322, 3323, 3324, 3325, 3326, 3327, 3328
 3329, 3330, 3331, 3332, 3333, 3334, 3335, 3336, 3337, 3338, 3339, 3340, 3341, 3342, 3343, 3344
 3345, 3346, 3347, 3348, 3349, 3350, 3351, 3352, 3353, 3354, 3355, 3356, 3357, 3358, 3359, 3360
 3361, 3362, 3363, 3364, 3365, 3366, 3367, 3368, 3369, 3370, 3371, 3372, 3373, 3374, 3375, 3376
 7369, 7370, 7371, 7372, 7373, 7374, 7375, 7376, 7377, 7378, 7379, 7380, 7381, 7382, 7383, 7384
 7385, 7386, 7387, 7388, 7389, 7390, 7391, 7392, 7393, 7394, 7395, 7396, 7397, 7398, 7399, 7400
 7401, 7402, 7403, 7404, 7405, 7406, 7407, 7408, 7409, 7410, 7411, 7412, 7413, 7414, 7415, 7416
 7417, 7418, 7419, 7420, 7421, 7422, 7423, 7424, 7425, 7426, 7427, 7428, 7429, 7430, 7431, 7432
 7433, 7434, 7435, 7436, 7437, 7438, 7439, 7440, 7441, 7442, 7443, 7444, 7445, 7446, 7447, 7448
 7449, 7450, 7451, 7452, 7453, 7454, 7455, 7456, 7457, 7458, 7459, 7460, 7461, 7462, 7463, 7464
 7465, 7466
*Elset, elset=_PickedSet20, internal, instance=bb-1-1, generate
 3473,  3536,     1
*Nset, nset=_PickedSet21, internal, instance=bb-1-1
  237,  238,  239,  245,  253,  254,  255,  256, 2837, 2838, 2839, 2840, 2841, 2842, 2843, 2844
 2845, 2846, 2847, 2848, 2849, 2850, 2851, 2852, 2853, 2854, 2855, 2856, 2857, 2858, 2859, 2860
 2861, 2862, 2863, 2864, 2999, 3000, 3001, 3002, 3003, 3004, 3005, 3006, 3007, 3008, 3009, 3010
 3011, 3012, 3013, 3014, 3015, 3016, 3017, 3018, 3019, 3020, 3021, 3022, 3023, 3024, 3025, 3026
 7765, 7766, 7767, 7768, 7769, 7770, 7771, 7772, 7773, 7774, 7775, 7776, 7777, 7778, 7779, 7780
 7781, 7782, 7783, 7784, 7785, 7786, 7787, 7788, 7789, 7790, 7791, 7792, 7793, 7794, 7795, 7796
 7797, 7798, 7799, 7800, 7801, 7802, 7803, 7804, 7805, 7806, 7807, 7808, 7809, 7810, 7811, 7812
 7813, 7814, 7815, 7816, 7817, 7818, 7819, 7820, 7821, 7822, 7823, 7824, 7825, 7826, 7827, 7828
 7829, 7830, 7831, 7832, 7833, 7834, 7835, 7836, 7837, 7838, 7839, 7840, 7841, 7842, 7843, 7844
 7845, 7846, 7847, 7848, 7849, 7850, 7851, 7852, 7853, 7854, 7855, 7856, 7857, 7858, 7859, 7860
 7861, 7862
*Elset, elset=_PickedSet21, internal, instance=bb-1-1, generate
 3833,  3896,     1
*Nset, nset=_PickedSet22, internal, instance=bb-1-1
  240,  241,  243,  244,  247,  248,  249,  250, 2809, 2810, 2811, 2812, 2813, 2814, 2815, 2816
 2817, 2818, 2819, 2820, 2821, 2822, 2823, 2824, 2825, 2826, 2827, 2828, 2829, 2830, 2831, 2832
 2833, 2834, 2835, 2836, 2918, 2919, 2920, 2921, 2922, 2923, 2924, 2925, 2926, 2927, 2928, 2929
 2930, 2931, 2932, 2933, 2934, 2935, 2936, 2937, 2938, 2939, 2940, 2941, 2942, 2943, 2944, 2945
 6977, 6978, 6979, 6980, 6981, 6982, 6983, 6984, 6985, 6986, 6987, 6988, 6989, 6990, 6991, 6992
 6993, 6994, 6995, 6996, 6997, 6998, 6999, 7000, 7001, 7002, 7003, 7004, 7005, 7006, 7007, 7008
 7009, 7010, 7011, 7012, 7013, 7014, 7015, 7016, 7017, 7018, 7019, 7020, 7021, 7022, 7023, 7024
 7025, 7026, 7027, 7028, 7029, 7030, 7031, 7032, 7033, 7034, 7035, 7036, 7037, 7038, 7039, 7040
 7041, 7042, 7043, 7044, 7045, 7046, 7047, 7048, 7049, 7050, 7051, 7052, 7053, 7054, 7055, 7056
 7057, 7058, 7059, 7060, 7061, 7062, 7063, 7064, 7065, 7066, 7067, 7068, 7069, 7070, 7071, 7072
 7073, 7074
*Elset, elset=_PickedSet22, internal, instance=bb-1-1, generate
 3217,  3280,     1
*Nset, nset=_PickedSet23, internal, instance=bb-1-1
    1,    2,    3,    4,    5,    6,    7,    8,    9,   12,   20,   21,   22,   23,   24,   25
   26,   27,   28,   29,   39,   40,   41,   42,   43,   44,   45,   46,   47,   48,   49,   50
   51,   52,   53,   54,   55,   56,   57,   58,  317,  318,  319,  320,  321,  322,  323,  324
  325,  326,  327,  328,  329,  330,  331,  332,  333,  334,  335,  336,  337,  338,  339,  340
  341,  342,  343,  344,  373,  374,  375,  376,  377,  378,  379,  380,  381,  382,  383,  384
  385,  386,  387,  388,  389,  390,  391,  392,  393,  394,  395,  396,  397,  398,  399,  400
  401,  402,  403,  404,  405,  406,  407,  408,  409,  410,  411,  412,  413,  414,  415,  416
  417,  418,  419,  420,  421,  422,  423,  424,  425,  426,  427,  428,  429,  430,  431,  432
  433,  434,  435,  436,  437,  438,  439,  440,  441,  442,  443,  444,  445,  446,  447,  448
  449,  450,  451,  452,  453,  454,  455,  456,  647,  648,  649,  650,  651,  652,  653,  654
  655,  656,  657,  658,  659,  660,  661,  662,  663,  664,  665,  666,  667,  668,  669,  670
  671,  672,  673,  674,  703,  704,  705,  706,  707,  708,  709,  710,  711,  712,  713,  714
  715,  716,  717,  718,  719,  720,  721,  722,  723,  724,  725,  726,  727,  728,  729,  730
  731,  732,  733,  734,  735,  736,  737,  738,  739,  740,  741,  742,  743,  744,  745,  746
  747,  748,  749,  750,  751,  752,  753,  754,  755,  756,  757,  758,  759,  760,  761,  762
  763,  764,  765,  766,  767,  768,  769,  770,  771,  772,  773,  774,  775,  776,  777,  778
  779,  780,  781,  782,  783,  784,  785,  786,  787,  788,  789,  790,  791,  792,  793,  794
  795,  796,  797,  798,  799,  800,  801,  802,  803,  804,  805,  806,  807,  808,  809,  810
  811,  812,  813,  814,  815,  816,  817,  818,  819,  820,  821,  822,  823,  824,  825,  826
  827,  828,  829,  830,  831,  832,  833,  834,  835,  836,  837,  838,  839,  840,  841,  842
** ... 31 like lines cut
*Elset, elset=_PickedSet23, internal, instance=bb-1-1
  417,  418,  419,  420,  421,  422,  423,  424,  425,  426,  427,  428,  429,  430,  431,  432
  433,  434,  435,  436,  437,  438,  439,  440,  441,  442,  443,  444,  445,  446,  447,  448
  449,  450,  451,  452,  453,  454,  455,  456,  457,  458,  459,  460,  461,  462,  463,  464
  465,  466,  467,  468,  469,  470,  471,  472,  473,  474,  475,  476,  477,  478,  479,  480
  545,  546,  547,  548,  549,  550,  551,  552,  553,  554,  555,  556,  557,  558,  559,  560
  561,  562,  563,  564,  565,  566,  567,  568,  569,  570,  571,  572,  573,  574,  575,  576
  577,  578,  579,  580,  581,  582,  583,  584,  585,  586,  587,  588,  589,  590,  591,  592
  593,  594,  595,  596,  597,  598,  599,  600,  601,  602,  603,  604,  605,  606,  607,  608
  609,  610,  611,  612,  613,  614,  615,  616,  617,  618,  619,  620,  621,  622,  623,  624
  625,  626,  627,  628,  629,  630,  631,  632,  633,  634,  635,  636,  637,  638,  639,  640
  641,  642,  643,  644,  645,  646,  647,  648,  649,  650,  651,  652,  653,  654,  655,  656
  657,  658,  659,  660,  661,  662,  663,  664,  665,  666,  667,  668,  669,  670,  671,  672
  673,  674,  675,  676,  677,  678,  679,  680,  681,  682,  683,  684,  685,  686,  687,  688
  689,  690,  691,  692,  693,  694,  695,  696,  697,  698,  699,  700,  701,  702,  703,  704
  705,  706,  707,  708,  709,  710,  711,  712,  713,  714,  715,  716,  717,  718,  719,  720
  721,  722,  723,  724,  725,  726,  727,  728,  729,  730,  731,  732,  733,  734,  735,  736
 3153, 3154, 3155, 3156, 3157, 3158, 3159, 3160, 3161, 3162, 3163, 3164, 3165, 3166, 3167, 3168
 3169, 3170, 3171, 3172, 3173, 3174, 3175, 3176, 3177, 3178, 3179, 3180, 3181, 3182, 3183, 3184
 3185, 3186, 3187, 3188, 3189, 3190, 3191, 3192, 3193, 3194, 3195, 3196, 3197, 3198, 3199, 3200
 3201, 3202, 3203, 3204, 3205, 3206, 3207, 3208, 3209, 3210, 3211, 3212, 3213, 3214, 3215, 3216
*Nset, nset=_PickedSet24, internal, instance=bb-1-1
   10,   11,   13,   14,   16,   19,   30,   31,   35,   36,   37,   38,   59,   60,   61,   62
  345,  346,  347,  348,  349,  350,  351,  352,  353,  354,  355,  356,  357,  358,  359,  360
  361,  362,  363,  364,  365,  366,  367,  368,  369,  370,  371,  372,  457,  458,  459,  460
  461,  462,  463,  464,  465,  466,  467,  468,  469,  470,  471,  472,  473,  474,  475,  476
  477,  478,  479,  480,  481,  482,  483,  484,  675,  676,  677,  678,  679,  680,  681,  682
  683,  684,  685,  686,  687,  688,  689,  690,  691,  692,  693,  694,  695,  696,  697,  698
  699,  700,  701,  702,  843,  844,  845,  846,  847,  848,  849,  850,  851,  852,  853,  854
  855,  856,  857,  858,  859,  860,  861,  862,  863,  864,  865,  866,  867,  868,  869,  870
 4269, 4270, 4271, 4272, 4273, 4274, 4275, 4276, 4277, 4278, 4279, 4280, 4281, 4282, 4283, 4284
 4285, 4286, 4287, 4288, 4289, 4290, 4291, 4292, 4293, 4294, 4295, 4296, 4297, 4298, 4299, 4300
 4301, 4302, 4303, 4304, 4305, 4306, 4307, 4308, 4309, 4310, 4311, 4312, 4313, 4314, 4315, 4316
 4317, 4318, 4319, 4320, 4321, 4322, 4323, 4324, 4325, 4326, 4327, 4328, 4329, 4330, 4331, 4332
 4333, 4334, 4335, 4336, 4337, 4338, 4339, 4340, 4341, 4342, 4343, 4344, 4345, 4346, 4347, 4348
 4349, 4350, 4351, 4352, 4353, 4354, 4355, 4356, 4357, 4358, 4359, 4360, 4361, 4362, 4363, 4364
 4365, 4366, 4661, 4662, 4663, 4664, 4665, 4666, 4667, 4668, 4669, 4670, 4671, 4672, 4673, 4674
 4675, 4676, 4677, 4678, 4679, 4680, 4681, 4682, 4683, 4684, 4685, 4686, 4687, 4688, 4689, 4690
 4691, 4692, 4693, 4694, 4695, 4696, 4697, 4698, 4699, 4700, 4701, 4702, 4703, 4704, 4705, 4706
 4707, 4708, 4709, 4710, 4711, 4712, 4713, 4714, 4715, 4716, 4717, 4718, 4719, 4720, 4721, 4722
 4723, 4724, 4725, 4726, 4727, 4728, 4729, 4730, 4731, 4732, 4733, 4734, 4735, 4736, 4737, 4738
 4739, 4740, 4741, 4742, 4743, 4744, 4745, 4746, 4747, 4748, 4749, 4750, 4751, 4752, 4753, 4754
 4755, 4756, 4757, 4758
*Elset, elset=_PickedSet24, internal, instance=bb-1-1
 481, 482, 483, 484, 485, 486, 487, 488, 489, 490, 491, 492, 493, 494, 495, 496
 497, 498, 499, 500, 501, 502, 503, 504, 505, 506, 507, 508, 509, 510, 511, 512
 513, 514, 515, 516, 517, 518, 519, 520, 521, 522, 523, 524, 525, 526, 527, 528
 529, 530, 531, 532, 533, 534, 535, 536, 537, 538, 539, 540, 541, 542, 543, 544
 737, 738, 739, 740, 741, 742, 743, 744, 745, 746, 747, 748, 749, 750, 751, 752
 753, 754, 755, 756, 757, 758, 759, 760, 761, 762, 763, 764, 765, 766, 767, 768
 769, 770, 771, 772, 773, 774, 775, 776, 777, 778, 779, 780, 781, 782, 783, 784
 785, 786, 787, 788, 789, 790, 791, 792, 793, 794, 795, 796, 797, 798, 799, 800
*Nset, nset=_PickedSet25, internal, instance=bb-1-1
    1,    2,    3,    4,    5,    6,    7,    8,    9,   10,   11,   12,   13,   14,   15,   16
   17,   18,   19,   20,   21,   22,   23,   24,   25,   26,   27,   28,   29,   30,   31,   32
   33,   34,   35,   36,   37,   38,   39,   40,   41,   42,   43,   44,   45,   46,   47,   48
   49,   50,   51,   52,   53,   54,   55,   56,   57,   58,   59,   60,   61,   62,   63,   64
   65,   66,   67,   68,   69,   70,   71,   72,   73,   74,   75,   76,   77,   78,   79,   80
   81,   82,   83,   84,   85,   86,   87,   88,   89,   90,   91,   92,   93,   94,   95,   96
   97,   98,   99,  100,  101,  102,  103,  104,  105,  106,  107,  108,  109,  110,  111,  112
  113,  114,  115,  116,  117,  118,  119,  120,  121,  122,  123,  124,  125,  126,  127,  128
  129,  130,  131,  132,  133,  134,  135,  136,  137,  138,  171,  172,  205,  206,  207,  208
  209,  210,  211,  212,  213,  214,  215,  216,  217,  218,  219,  220,  221,  222,  223,  224
  225,  226,  227,  228,  237,  238,  239,  240,  241,  242,  243,  244,  245,  246,  247,  248
  249,  250,  251,  252,  253,  254,  255,  256,  257,  258,  259,  260,  269,  270,  271,  272
  273,  274,  275,  276,  277,  278,  279,  280,  281,  282,  283,  284,  285,  286,  287,  288
  289,  290,  291,  292,  293,  294,  295,  296,  297,  298,  299,  300,  317,  318,  319,  320
  321,  322,  323,  324,  325,  326,  327,  328,  329,  330,  331,  332,  333,  334,  335,  336
  337,  338,  339,  340,  341,  342,  343,  344,  345,  346,  347,  348,  349,  350,  351,  352
  353,  354,  355,  356,  357,  358,  359,  360,  361,  362,  363,  364,  365,  366,  367,  368
  369,  370,  371,  372,  373,  374,  375,  376,  377,  378,  379,  380,  381,  382,  383,  384
  385,  386,  387,  388,  389,  390,  391,  392,  393,  394,  395,  396,  397,  398,  399,  400
  401,  402,  403,  404,  405,  406,  407,  408,  409,  410,  411,  412,  413,  414,  415,  416
** ... 226 like lines cut
*Elset, elset=_PickedSet25, internal, instance=bb-1-1
    1,    2,    3,    4,    5,    6,    7,    8,    9,   10,   11,   12,   13,   14,   15,   16
   17,   18,   19,   20,   21,   22,   23,   24,   25,   26,   27,   28,   29,   30,   31,   32
   33,   34,   35,   36,   37,   38,   39,   40,   41,   42,   43,   44,   45,   46,   47,   48
   49,   50,   51,   52,   53,   54,   55,   56,   57,   58,   59,   60,   61,   62,   63,   64
   65,   66,   67,   68,   69,   70,   71,   72,   73,   74,   75,   76,   77,   78,   79,   80
   81,   82,   83,   84,   85,   86,   87,   88,   89,   90,   91,   92,   93,   94,   95,   96
   97,   98,   99,  100,  101,  102,  103,  104,  105,  106,  107,  108,  109,  110,  111,  112
  113,  114,  115,  116,  117,  118,  119,  120,  121,  122,  123,  124,  125,  126,  127,  128
  129,  130,  131,  132,  133,  134,  135,  136,  137,  138,  139,  140,  141,  142,  143,  144
  145,  146,  147,  148,  149,  150,  151,  152,  153,  154,  155,  156,  157,  158,  159,  160
  161,  162,  163,  164,  165,  166,  167,  168,  169,  170,  171,  172,  173,  174,  175,  176
  177,  178,  179,  180,  181,  182,  183,  184,  185,  186,  187,  188,  189,  190,  191,  192
  193,  194,  195,  196,  197,  198,  199,  200,  201,  202,  203,  204,  205,  206,  207,  208
  209,  210,  211,  212,  213,  214,  215,  216,  217,  218,  219,  220,  221,  222,  223,  224
  225,  226,  227,  228,  229,  230,  231,  232,  233,  234,  235,  236,  237,  238,  239,  240
  241,  242,  243,  244,  245,  246,  247,  248,  249,  250,  251,  252,  253,  254,  255,  256
  257,  258,  259,  260,  261,  262,  263,  264,  265,  266,  267,  268,  269,  270,  271,  272
  273,  274,  275,  276,  277,  278,  279,  280,  281,  282,  283,  284,  285,  286,  287,  288
  289,  290,  291,  292,  293,  294,  295,  296,  297,  298,  299,  300,  301,  302,  303,  304
  305,  306,  307,  308,  309,  310,  311,  312,  313,  314,  315,  316,  317,  318,  319,  320
** ... 65 like lines cut
*Nset, nset=ff, instance=bb-1-1
 3468, 3469, 3470, 3510, 3511, 3512, 7735, 7736, 7737
*Elset, elset=_Surf-1_S4, internal, instance=rr-1, generate
    1,  3550,    91
*Elset, elset=_Surf-1_S6, internal, instance=rr-1
    2,   33,   93,  124,  184,  215,  275,  306,  366,  397,  457,  488,  548,  579,  639,  670
  730,  761,  821,  852,  912,  943, 1003, 1034, 1094, 1125, 1185, 1216, 1276, 1307, 1367, 1398
 1458, 1489, 1549, 1580, 1640, 1671, 1731, 1762, 1822, 1853, 1913, 1944, 2004, 2035, 2095, 2126
 2186, 2217, 2277, 2308, 2368, 2399, 2459, 2490, 2550, 2581, 2641, 2672, 2732, 2763, 2823, 2854
 2914, 2945, 3005, 3036, 3096, 3127, 3187, 3218, 3278, 3309, 3369, 3400, 3460, 3491, 3551, 3582
*Elset, elset=_Surf-1_S3, internal, instance=rr-1
    3,    4,    6,   24,   26,   27,   28,   29,   30,   31,   32,   34,   37,   38,   39,   40
   41,   42,   43,   44,   47,   48,   79,   94,   95,   97,  115,  117,  118,  119,  120,  121
  122,  123,  125,  128,  129,  130,  131,  132,  133,  134,  135,  138,  139,  170,  185,  186
  188,  206,  208,  209,  210,  211,  212,  213,  214,  216,  219,  220,  221,  222,  223,  224
  225,  226,  229,  230,  261,  276,  277,  279,  297,  299,  300,  301,  302,  303,  304,  305
  307,  310,  311,  312,  313,  314,  315,  316,  317,  320,  321,  352,  367,  368,  370,  388
  390,  391,  392,  393,  394,  395,  396,  398,  401,  402,  403,  404,  405,  406,  407,  408
  411,  412,  443,  458,  459,  461,  479,  481,  482,  483,  484,  485,  486,  487,  489,  492
  493,  494,  495,  496,  497,  498,  499,  502,  503,  534,  549,  550,  552,  570,  572,  573
  574,  575,  576,  577,  578,  580,  583,  584,  585,  586,  587,  588,  589,  590,  593,  594
  625,  640,  641,  643,  661,  663,  664,  665,  666,  667,  668,  669,  671,  674,  675,  676
  677,  678,  679,  680,  681,  684,  685,  716,  731,  732,  734,  752,  754,  755,  756,  757
  758,  759,  760,  762,  765,  766,  767,  768,  769,  770,  771,  772,  775,  776,  807,  822
  823,  825,  843,  845,  846,  847,  848,  849,  850,  851,  853,  856,  857,  858,  859,  860
  861,  862,  863,  866,  867,  898,  913,  914,  916,  934,  936,  937,  938,  939,  940,  941
  942,  944,  947,  948,  949,  950,  951,  952,  953,  954,  957,  958,  989, 1004, 1005, 1007
 1025, 1027, 1028, 1029, 1030, 1031, 1032, 1033, 1035, 1038, 1039, 1040, 1041, 1042, 1043, 1044
 1045, 1048, 1049, 1080, 1095, 1096, 1098, 1116, 1118, 1119, 1120, 1121, 1122, 1123, 1124, 1126
 1129, 1130, 1131, 1132, 1133, 1134, 1135, 1136, 1139, 1140, 1171, 1186, 1187, 1189, 1207, 1209
 1210, 1211, 1212, 1213, 1214, 1215, 1217, 1220, 1221, 1222, 1223, 1224, 1225, 1226, 1227, 1230
** ... 38 like lines cut
*Elset, elset=_Surf-1_S5, internal, instance=rr-1
   19,   35,  110,  126,  201,  217,  292,  308,  383,  399,  474,  490,  565,  581,  656,  672
  747,  763,  838,  854,  929,  945, 1020, 1036, 1111, 1127, 1202, 1218, 1293, 1309, 1384, 1400
 1475, 1491, 1566, 1582, 1657, 1673, 1748, 1764, 1839, 1855, 1930, 1946, 2021, 2037, 2112, 2128
 2203, 2219, 2294, 2310, 2385, 2401, 2476, 2492, 2567, 2583, 2658, 2674, 2749, 2765, 2840, 2856
 2931, 2947, 3022, 3038, 3113, 3129, 3204, 3220, 3295, 3311, 3386, 3402, 3477, 3493, 3568, 3584
*Surface, type=ELEMENT, name=Surf-1
_Surf-1_S4, S4
_Surf-1_S6, S6
_Surf-1_S3, S3
_Surf-1_S5, S5
*Elset, elset=_b_S2, internal, instance=bb-1-1
 2569, 2570, 2571, 2572, 2573, 2574, 2575, 2576, 2577, 2578, 2579, 2580, 2581, 2582, 2583, 2584
 2585, 2586, 2587, 2588, 2589, 2590, 2591, 2592, 2593, 2594, 2595, 2596, 2597, 2598, 2599, 2600
 2601, 2602, 2603, 2604, 2605, 2606, 2607, 2608, 2609, 2610, 2611, 2612, 2613, 2614, 2615, 2616
 2617, 2618, 2619, 2620, 2621, 2622, 2623, 2624, 2625, 2626, 2627, 2628, 2629, 2630, 2631, 2632
 2633, 2634, 2635, 2636, 2637, 2638, 2639, 2640, 2641, 2642, 2643, 2644, 2645, 2646, 2647, 2648
 2649, 2650, 2651, 2652, 2653, 2654, 2655, 2656, 2657, 2658, 2659, 2660, 2661, 2662, 2663, 2664
 2665, 2666, 2667, 2668, 2669, 2670, 2671, 2672, 2673, 2674, 2675, 2676, 2677, 2678, 2679, 2680
 2681, 2682, 2683, 2684, 2685, 2686, 2687, 2688, 2689, 2690, 2691, 2692, 2693, 2694, 2695, 2696
 2697, 2698, 2699, 2700, 2701, 2702, 2703, 2704, 2705, 2706, 2707, 2708, 2709, 2710, 2711, 2712
 2713, 2714, 2715, 2716, 2717, 2718, 2719, 2720, 2721, 2722, 2723, 2724, 2725, 2726, 2727, 2728
 2865, 2866, 2867, 2868, 2869, 2870, 2871, 2872, 2873, 2874, 2875, 2876, 2877, 2878, 2879, 2880
 2881, 2882, 2883, 2884, 2885, 2886, 2887, 2888, 2889, 2890, 2891, 2892, 2893, 2894, 2895, 2896
 2897, 2898, 2899, 2900, 2901, 2902, 2903, 2904, 2905, 2906, 2907, 2908, 2909, 2910, 2911, 2912
 2913, 2914, 2915, 2916, 2917, 2918, 2919, 2920, 2921, 2922, 2923, 2924, 2925, 2926, 2927, 2928
 2929, 2930, 2931, 2932, 2933, 2934, 2935, 2936, 2937, 2938, 2939, 2940, 2941, 2942, 2943, 2944
 2945, 2946, 2947, 2948, 2949, 2950, 2951, 2952, 2953, 2954, 2955, 2956, 2957, 2958, 2959, 2960
 2961, 2962, 2963, 2964, 2965, 2966, 2967, 2968, 2969, 2970, 2971, 2972, 2973, 2974, 2975, 2976
 2977, 2978, 2979, 2980, 2981, 2982, 2983, 2984, 2985, 2986, 2987, 2988, 2989, 2990, 2991, 2992
 2993, 2994, 2995, 2996, 2997, 2998, 2999, 3000, 3001, 3002, 3003, 3004, 3005, 3006, 3007, 3008
 3009, 3010, 3011, 3012, 3013, 3014, 3015, 3016, 3017, 3018, 3019, 3020, 3021, 3022, 3023, 3024
** ... 32 like lines cut
*Surface, type=ELEMENT, name=b
_b_S2, S2
*Elset, elset=_fj_S2, internal, instance=bb-1-1
    1,    2,    3,    4,    5,    6,    7,    8,    9,   10,   11,   12,   13,   14,   15,   16
   17,   18,   19,   20,   21,   22,   23,   24,   25,   26,   27,   28,   29,   30,   31,   32
   33,   34,   35,   36,   37,   38,   39,   40,   41,   42,   43,   44,   45,   46,   47,   48
   49,   50,   51,   52,   53,   54,   55,   56,   57,   58,   59,   60,   61,   62,   63,   64
   65,   66,   67,   68,   69,   70,   71,   72,   73,   74,   75,   76,   77,   78,   79,   80
   81,   82,   83,   84,   85,   86,   87,   88,   89,   90,   91,   92,   93,   94,   95,   96
   97,   98,   99,  100,  101,  102,  103,  104,  105,  106,  107,  108,  109,  110,  111,  112
  113,  114,  115,  116,  117,  118,  119,  120,  121,  122,  123,  124,  125,  126,  127,  128
  129,  130,  131,  132,  133,  134,  135,  136,  137,  138,  139,  140,  141,  142,  143,  144
  145,  146,  147,  148,  149,  150,  151,  152,  153,  154,  155,  156,  157,  158,  159,  160
  161,  162,  163,  164,  165,  166,  167,  168,  169,  170,  171,  172,  173,  174,  175,  176
  177,  178,  179,  180,  181,  182,  183,  184,  185,  186,  187,  188,  189,  190,  191,  192
  193,  194,  195,  196,  197,  198,  199,  200,  201,  202,  203,  204,  205,  206,  207,  208
  209,  210,  211,  212,  213,  214,  215,  216,  217,  218,  219,  220,  221,  222,  223,  224
  225,  226,  227,  228,  229,  230,  231,  232,  233,  234,  235,  236,  237,  238,  239,  240
  241,  242,  243,  244,  245,  246,  247,  248,  249,  250,  251,  252,  253,  254,  255,  256
  257,  258,  259,  260,  261,  262,  263,  264,  265,  266,  267,  268,  269,  270,  271,  272
  273,  274,  275,  276,  277,  278,  279,  280,  281,  282,  283,  284,  285,  286,  287,  288
  289,  290,  291,  292,  293,  294,  295,  296,  297,  298,  299,  300,  301,  302,  303,  304
  305,  306,  307,  308,  309,  310,  311,  312,  313,  314,  315,  316,  317,  318,  319,  320
** ... 34 like lines cut
*Surface, type=ELEMENT, name=fj
_fj_S2, S2
*Elset, elset=_fi_S2, internal, instance=bb-1-1
  801,  802,  803,  804,  805,  806,  807,  808,  809,  810,  811,  812,  813,  814,  815,  816
  817,  818,  819,  820,  821,  822,  823,  824,  825,  826,  827,  828,  829,  830,  831,  832
  833,  834,  835,  836,  837,  838,  839,  840,  841,  842,  843,  844,  845,  846,  847,  848
  849,  850,  851,  852,  853,  854,  855,  856,  857,  858,  859,  860,  861,  862,  863,  864
  865,  866,  867,  868,  869,  870,  871,  872,  873,  874,  875,  876,  877,  878,  879,  880
  881,  882,  883,  884,  885,  886,  887,  888,  889,  890,  891,  892,  893,  894,  895,  896
  897,  898,  899,  900,  901,  902,  903,  904,  905,  906,  907,  908,  909,  910,  911,  912
  913,  914,  915,  916,  917,  918,  919,  920,  921,  922,  923,  924,  925,  926,  927,  928
  929,  930,  931,  932,  933,  934,  935,  936,  937,  938,  939,  940,  941,  942,  943,  944
  945,  946,  947,  948,  949,  950,  951,  952,  953,  954,  955,  956,  957,  958,  959,  960
  961,  962,  963,  964,  965,  966,  967,  968,  969,  970,  971,  972,  973,  974,  975,  976
  977,  978,  979,  980,  981,  982,  983,  984,  985,  986,  987,  988,  989,  990,  991,  992
  993,  994,  995,  996,  997,  998,  999, 1000, 1001, 1002, 1003, 1004, 1005, 1006, 1007, 1008
 1009, 1010, 1011, 1012, 1013, 1014, 1015, 1016, 1017, 1018, 1019, 1020, 1021, 1022, 1023, 1024
 1025, 1026, 1027, 1028, 1029, 1030, 1031, 1032, 1033, 1034, 1035, 1036, 1037, 1038, 1039, 1040
 1041, 1042, 1043, 1044, 1045, 1046, 1047, 1048, 1049, 1050, 1051, 1052, 1053, 1054, 1055, 1056
 1057, 1058, 1059, 1060, 1061, 1062, 1063, 1064, 1065, 1066, 1067, 1068, 1069, 1070, 1071, 1072
 1073, 1074, 1075, 1076, 1077, 1078, 1079, 1080, 1081, 1082, 1083, 1084, 1085, 1086, 1087, 1088
 1089, 1090, 1091, 1092, 1093, 1094, 1095, 1096, 1097, 1098, 1099, 1100, 1101, 1102, 1103, 1104
 1105, 1106, 1107, 1108, 1109, 1110, 1111, 1112, 1113, 1114, 1115, 1116, 1117, 1118, 1119, 1120
** ... 34 like lines cut
*Surface, type=ELEMENT, name=fi
_fi_S2, S2
*End Assembly
** 
** MATERIALS
** 
*Material, name=ABS
*Density
1120.,
*Elastic
 2.3e+09, 0.394
*Material, name=DE-umat-b
*Density
960.,
*User Material, constants=9
22500.,   8.8e-08, 3.717e-11,        0.,        0.,        1.,        1.,      1.12
  0.892857,
*Material, name=DE-umat-f
*Density
960.,
*User Material, constants=9
22500.,   8.8e-08, 3.717e-11,        0.,        0.,        1.,        1.,      1.15
  0.869565,
*Material, name=DE-umat-ff
*Density
960.,
*User Material, constants=9
22500.,   8.8e-08, 3.717e-11,        0.,        0.,        1.,      1.15,        1.
  0.869565,
*Material, name=rr
*Density
1.,
*Elastic
 2.1e+14, 0.3
*Material, name=sub-ABS
*Density
1120.,
*Elastic
 1e+09, 0.394
** 
** INTERACTION PROPERTIES
** 
*Surface Interaction, name=one
1.,
*Friction, slip tolerance=0.005
 0.3,
*Surface Interaction, name=zero
1.,
** 
** BOUNDARY CONDITIONS
** 
** Name: BC-1 Type: Displacement/Rotation
*Boundary
_PickedSet8, 1, 1
_PickedSet8, 2, 2
_PickedSet8, 3, 3
** Name: BC-2 Type: Displacement/Rotation
*Boundary
ff, 1, 1
ff, 2, 2
ff, 3, 3
** 
** PREDEFINED FIELDS
** 
** Name: b-i1   Type: Temperature
*Initial Conditions, type=TEMPERATURE
_PickedSet20, 0.
** Name: b-i2   Type: Temperature
*Initial Conditions, type=TEMPERATURE
_PickedSet19, 0.
** Name: b-j1   Type: Temperature
*Initial Conditions, type=TEMPERATURE
_PickedSet17, 0.
** Name: b-j2   Type: Temperature
*Initial Conditions, type=TEMPERATURE
_PickedSet18, 0.
** Name: f-i1   Type: Temperature
*Initial Conditions, type=TEMPERATURE
_PickedSet22, 0.
** Name: f-i2   Type: Temperature
*Initial Conditions, type=TEMPERATURE
_PickedSet21, 0.
** Name: f-j1   Type: Temperature
*Initial Conditions, type=TEMPERATURE
_PickedSet15, 0.
** Name: f-j2   Type: Temperature
*Initial Conditions, type=TEMPERATURE
_PickedSet16, 0.
** Name: ff-i-a   Type: Temperature
*Initial Conditions, type=TEMPERATURE
_PickedSet24, 0.
** Name: ff-i-b   Type: Temperature
*Initial Conditions, type=TEMPERATURE
_PickedSet23, 0.
** Name: ff-j-a   Type: Temperature
*Initial Conditions, type=TEMPERATURE
_PickedSet13, 0.
** Name: ff-j-b   Type: Temperature
*Initial Conditions, type=TEMPERATURE
_PickedSet14, 0.
** Name: others   Type: Temperature
*Initial Conditions, type=TEMPERATURE
_PickedSet25, 0.
** 
** INTERACTIONS
** 
** Interaction: Int-1
*Contact Pair, interaction=zero, type=SURFACE TO SURFACE
b, Surf-1
** Interaction: Int-2
*Contact Pair, interaction=one, type=SURFACE TO SURFACE
fi, Surf-1
** Interaction: Int-3
*Contact Pair, interaction=one, type=SURFACE TO SURFACE
fj, Surf-1
** ----------------------------------------------------------------
** 
** STEP: release
** 
*Step, name=release, nlgeom=YES, inc=100000
*Static
0.001, 1., 1e-05, 0.015
** 
** BOUNDARY CONDITIONS
** 
** Name: BC-1 Type: Displacement/Rotation
*Boundary
_PickedSet8, 3, 3
** 
** LOADS
** 
** Name: Load-1   Type: Gravity
*Dload
, GRAV, 0.3, 0., 0., -1.
** 
** INTERACTIONS
** 
** Interaction: Int-1
*Model Change, type=CONTACT PAIR, remove
b, Surf-1
** Interaction: Int-2
*Model Change, type=CONTACT PAIR, remove
fi, Surf-1
** Interaction: Int-3
*Model Change, type=CONTACT PAIR, remove
fj, Surf-1
** 
** OUTPUT REQUESTS
** 
*Restart, write, overlay, frequency=1
** 
** FIELD OUTPUT: F-Output-1
** 
*Output, field, variable=PRESELECT
** 
** HISTORY OUTPUT: H-Output-1
** 
*Output, history, variable=PRESELECT
*End Step
** ----------------------------------------------------------------
** 
** STEP: open
** 
*Step, name=open, nlgeom=YES, inc=10000
*Static
0.001, 1., 1e-05, 0.03
** 
** PREDEFINED FIELDS
** 
** Name: ff-i-a   Type: Temperature
*Temperature
_PickedSet24, 2e+07
** Name: ff-i-b   Type: Temperature
*Temperature
_PickedSet23, 2e+07
** Name: ff-j-a   Type: Temperature
*Temperature
_PickedSet13, 2e+07
** Name: ff-j-b   Type: Temperature
*Temperature
_PickedSet14, 2e+07
** 
** OUTPUT REQUESTS
** 
*Restart, write, overlay, frequency=1
** 
** FIELD OUTPUT: F-Output-1
** 
*Output, field, variable=PRESELECT
** 
** HISTORY OUTPUT: H-Output-1
** 
*Output, history, variable=PRESELECT
*End Step
** ----------------------------------------------------------------
** 
** STEP: pre
** 
*Step, name=pre, nlgeom=YES, inc=10000
*Static
0.001, 1., 1e-05, 0.03
** 
** BOUNDARY CONDITIONS
** 
** Name: BC-1 Type: Displacement/Rotation
*Boundary
_PickedSet8, 3, 3, 0.09
** 
** INTERACTIONS
** 
** Interaction: Int-1
*Model Change, type=CONTACT PAIR, add
b, Surf-1
** Interaction: Int-2
*Model Change, type=CONTACT PAIR, add
fi, Surf-1
** Interaction: Int-3
*Model Change, type=CONTACT PAIR, add
fj, Surf-1
** 
** OUTPUT REQUESTS
** 
*Restart, write, overlay, frequency=1
** 
** FIELD OUTPUT: F-Output-1
** 
*Output, field, variable=PRESELECT
** 
** HISTORY OUTPUT: H-Output-1
** 
*Output, history, variable=PRESELECT
*End Step
** ----------------------------------------------------------------
** 
** STEP: grasp
** 
*Step, name=grasp, nlgeom=YES, inc=100000
*Dynamic,application=QUASI-STATIC,initial=NO
0.001,1.,1e-05,0.03
** 
** BOUNDARY CONDITIONS
** 
** Name: BC-2 Type: Displacement/Rotation
*Boundary
ff, 2, 2
ff, 3, 3
** 
** PREDEFINED FIELDS
** 
** Name: ff-i-b   Type: Temperature
*Temperature
_PickedSet23, 0.
** Name: ff-j-b   Type: Temperature
*Temperature
_PickedSet14, 0.
** 
** OUTPUT REQUESTS
** 
*Restart, write, overlay, frequency=1
** 
** FIELD OUTPUT: F-Output-1
** 
*Output, field, variable=PRESELECT, frequency=1
** 
** HISTORY OUTPUT: H-Output-1
** 
*Output, history, variable=PRESELECT, frequency=1
*End Step
** ----------------------------------------------------------------
** 
** STEP: grasp-continue
** 
*Step, name=grasp-continue, nlgeom=YES, inc=100000
*Dynamic,application=QUASI-STATIC,initial=NO
0.01,1.,1e-05,0.03
** 
** PREDEFINED FIELDS
** 
** Name: ff-i-a   Type: Temperature
*Temperature
_PickedSet24, 0.
** Name: ff-j-a   Type: Temperature
*Temperature
_PickedSet13, 0.
** 
** OUTPUT REQUESTS
** 
*Restart, write, overlay, frequency=1
** 
** FIELD OUTPUT: F-Output-1
** 
*Output, field, variable=PRESELECT, frequency=1
** 
** HISTORY OUTPUT: H-Output-1
** 
*Output, history, variable=PRESELECT, frequency=1
*End Step
** ----------------------------------------------------------------
** 
** STEP: rest
** 
*Step, name=rest, nlgeom=YES, inc=100000
*Dynamic,application=QUASI-STATIC,initial=NO
0.01,1.,1e-05,0.03
** 
** BOUNDARY CONDITIONS
** 
** Name: BC-1 Type: Displacement/Rotation
*Boundary, op=NEW
_PickedSet8, 1, 1
_PickedSet8, 2, 2
_PickedSet8, 3, 3, 0.09
** Name: BC-2 Type: Displacement/Rotation
*Boundary, op=NEW
ff, 1, 1
** 
** OUTPUT REQUESTS
** 
*Restart, write, overlay, frequency=1
** 
** FIELD OUTPUT: F-Output-1
** 
*Output, field, variable=PRESELECT, frequency=1
** 
** HISTORY OUTPUT: H-Output-1
** 
*Output, history, variable=PRESELECT, frequency=1
*End Step
** ----------------------------------------------------------------
** 
** STEP: de-ff-i-ab
** 
*Step, name=de-ff-i-ab, nlgeom=YES, inc=100000
*Dynamic,application=QUASI-STATIC,initial=NO
0.01,1.,1e-05,0.03
** 
** PREDEFINED FIELDS
** 
** Name: ff-i-a   Type: Temperature
*Temperature
_PickedSet24, 2e+07
** Name: ff-i-b   Type: Temperature
*Temperature
_PickedSet23, 2e+07
** 
** OUTPUT REQUESTS
** 
*Restart, write, overlay, frequency=1
** 
** FIELD OUTPUT: F-Output-1
** 
*Output, field, variable=PRESELECT, frequency=1
** 
** HISTORY OUTPUT: H-Output-1
** 
*Output, history, variable=PRESELECT, frequency=1
*End Step
** ----------------------------------------------------------------
** 
** STEP: big-move
** 
*Step, name=big-move, nlgeom=YES, inc=100000
*Dynamic,application=QUASI-STATIC,initial=NO
0.01,1.,1e-05,0.03
** 
** PREDEFINED FIELDS
** 
** Name: b-i1   Type: Temperature
*Temperature
_PickedSet20, 2.2e+07
** Name: b-i2   Type: Temperature
*Temperature
_PickedSet19, 2.2e+07
** Name: b-j1   Type: Temperature
*Temperature
_PickedSet17, 2.2e+07
** Name: b-j2   Type: Temperature
*Temperature
_PickedSet18, 2.2e+07
** 
** OUTPUT REQUESTS
** 
*Restart, write, overlay, frequency=1
** 
** FIELD OUTPUT: F-Output-1
** 
*Output, field, variable=PRESELECT, frequency=1
** 
** HISTORY OUTPUT: H-Output-1
** 
*Output, history, variable=PRESELECT, frequency=1
*End Step
** ----------------------------------------------------------------
** 
** STEP: rest-2
** 
*Step, name=rest-2, nlgeom=YES, inc=100000
*Dynamic,application=QUASI-STATIC,initial=NO
0.01,1.,1e-05,0.03
** 
** PREDEFINED FIELDS
** 
** Name: f-i1   Type: Temperature
*Temperature
_PickedSet22, 2.2e+06
** Name: f-i2   Type: Temperature
*Temperature
_PickedSet21, 2.2e+07
** Name: ff-i-a   Type: Temperature
*Temperature
_PickedSet24, 2.2e+07
** 
** OUTPUT REQUESTS
** 
*Restart, write, overlay, frequency=1
** 
** FIELD OUTPUT: F-Output-1
** 
*Output, field, variable=PRESELECT, frequency=1
** 
** HISTORY OUTPUT: H-Output-1
** 
*Output, history, variable=PRESELECT, frequency=1
*End Step
** ----------------------------------------------------------------
** 
** STEP: grasp-2
** 
*Step, name=grasp-2, nlgeom=YES, inc=100000
*Dynamic,application=QUASI-STATIC,initial=NO
0.001,1.,1e-05,0.03
** 
** PREDEFINED FIELDS
** 
** Name: ff-i-b   Type: Temperature
*Temperature
_PickedSet23, 0.
** Name: ff-j-a   Type: Temperature
*Temperature
_PickedSet13, 2.2e+07
** Name: ff-j-b   Type: Temperature
*Temperature
_PickedSet14, 2e+07
** 
** OUTPUT REQUESTS
** 
*Restart, write, overlay, frequency=1
** 
** FIELD OUTPUT: F-Output-1
** 
*Output, field, variable=PRESELECT, frequency=1
** 
** HISTORY OUTPUT: H-Output-1
** 
*Output, history, variable=PRESELECT, frequency=1
*End Step
** ----------------------------------------------------------------
** 
** STEP: grasp-2-continue
** 
*Step, name=grasp-2-continue, nlgeom=YES, inc=100000
*Dynamic,application=QUASI-STATIC,initial=NO
0.001,1.,1e-05,0.03
** 
** PREDEFINED FIELDS
** 
** Name: ff-i-a   Type: Temperature
*Temperature
_PickedSet24, 0.
** 
** OUTPUT REQUESTS
** 
*Restart, write, overlay, frequency=1
** 
** FIELD OUTPUT: F-Output-1
** 
*Output, field, variable=PRESELECT, frequency=1
** 
** HISTORY OUTPUT: H-Output-1
** 
*Output, history, variable=PRESELECT, frequency=1
*End Step
** ----------------------------------------------------------------
** 
** STEP: big-back
** 
*Step, name=big-back, nlgeom=YES, inc=100000
*Dynamic,application=QUASI-STATIC,initial=NO
0.01,1.,1e-05,0.03
** 
** PREDEFINED FIELDS
** 
** Name: b-i1   Type: Temperature
*Temperature
_PickedSet20, 0.
** Name: b-i2   Type: Temperature
*Temperature
_PickedSet19, 0.
** Name: b-j1   Type: Temperature
*Temperature
_PickedSet17, 0.
** Name: b-j2   Type: Temperature
*Temperature
_PickedSet18, 0.
** Name: f-i1   Type: Temperature
*Temperature
_PickedSet22, 0.
** Name: f-i2   Type: Temperature
*Temperature
_PickedSet21, 0.
** 
** OUTPUT REQUESTS
** 
*Restart, write, overlay, frequency=1
** 
** FIELD OUTPUT: F-Output-1
** 
*Output, field, variable=PRESELECT, frequency=1
** 
** HISTORY OUTPUT: H-Output-1
** 
*Output, history, variable=PRESELECT, frequency=1
*End Step
** ----------------------------------------------------------------
** 
** STEP: grasp-3
** 
*Step, name=grasp-3, nlgeom=YES, inc=100000
*Dynamic,application=QUASI-STATIC,initial=NO
0.01,1.,1e-05,0.03
** 
** PREDEFINED FIELDS
** 
** Name: ff-i-a   Type: Temperature
*Temperature
_PickedSet24, 2.2e+07
** Name: ff-i-b   Type: Temperature
*Temperature
_PickedSet23, 2e+07
** Name: ff-j-b   Type: Temperature
*Temperature
_PickedSet14, 0.
** 
** OUTPUT REQUESTS
** 
*Restart, write, overlay, frequency=1
** 
** FIELD OUTPUT: F-Output-1
** 
*Output, field, variable=PRESELECT, frequency=1
** 
** HISTORY OUTPUT: H-Output-1
** 
*Output, history, variable=PRESELECT, frequency=1
*End Step
** ----------------------------------------------------------------
** 
** STEP: grasp-3-continue
** 
*Step, name=grasp-3-continue, nlgeom=YES, inc=100000
*Dynamic,application=QUASI-STATIC,initial=NO
0.01,1.,1e-05,0.03
** 
** PREDEFINED FIELDS
** 
** Name: ff-j-a   Type: Temperature
*Temperature
_PickedSet13, 0.
** 
** OUTPUT REQUESTS
** 
*Restart, write, overlay, frequency=1
** 
** FIELD OUTPUT: F-Output-1
** 
*Output, field, variable=PRESELECT, frequency=1
** 
** HISTORY OUTPUT: H-Output-1
** 
*Output, history, variable=PRESELECT, frequency=1
*End Step
** ----------------------------------------------------------------
** 
** STEP: big-move-2
** 
*Step, name=big-move-2, nlgeom=YES, inc=100000
*Dynamic,application=QUASI-STATIC,initial=NO
0.01,1.,1e-05,0.03
** 
** PREDEFINED FIELDS
** 
** Name: b-i1   Type: Temperature
*Temperature
_PickedSet20, 2.2e+07
** Name: b-i2   Type: Temperature
*Temperature
_PickedSet19, 2.2e+07
** Name: b-j1   Type: Temperature
*Temperature
_PickedSet17, 2.2e+07
** Name: b-j2   Type: Temperature
*Temperature
_PickedSet18, 2.2e+07
** 
** OUTPUT REQUESTS
** 
*Restart, write, overlay, frequency=1
** 
** FIELD OUTPUT: F-Output-1
** 
*Output, field, variable=PRESELECT, frequency=1
** 
** HISTORY OUTPUT: H-Output-1
** 
*Output, history, variable=PRESELECT, frequency=1
*End Step
