*Heading
** Job name: over-all Model name: Model-1
** Generated by: Abaqus/CAE 6.10-1
*Preprint, echo=NO, model=NO, history=NO, contact=NO
**
** PARTS
**
*Part, name=Part-1
*Node
      1, 0.00200000009, 0.0154999997, -0.00400000019
      2, 0.00200000009, 0.0154999997, -0.00300000003
      3, 0.00200000009, 0.0250000004, -0.00300000003
      4, 0.00200000009, 0.0299999993, -0.00300000003
      5, 0.00200000009, 0.0395000018, -0.00300000003
      6, 0.00200000009, 0.0250000004, -0.00400000019
      7, 0.00200000009, 0.0299999993, -0.00400000019
      8, 0.00200000009, 0.0395000018, -0.00400000019
      9, 0.00499999989, 0.0154999997, -0.00300000003
     10, 0.00499999989, 0.0250000004, -0.00300000003
     11, 0.00499999989, 0.0299999993, -0.00300000003
     12, 0.00499999989, 0.0395000018, -0.00300000003
     13, 0.00499999989, 0.0395000018, -0.00400000019
     14, 0.00499999989, 0.0154999997, -0.00400000019
     15, -0.0120000001, 0.0395000018, -0.00400000019
     16, -0.0120000001, 0.0395000018, -0.00300000003
     17, -0.0149999997, 0.0395000018, -0.00300000003
     18, -0.0149999997, 0.0395000018, -0.00400000019
     19, 0.00499999989, 0.0454999991, -0.00300000003
     20, -0.0149999997, 0.0454999991, -0.00300000003
** ... 4097 like lines cut
*Element, type=C3D8R
 1,  14,   9, 297, 302,   1,   2, 281, 290
 2, 302, 297, 296, 303, 290, 281, 282, 289
 3, 303, 296, 295, 304, 289, 282, 283, 288
 4, 304, 295,  10, 305, 288, 283,   3,   6
 5, 305,  10, 298, 306,   6,   3, 284, 291
 6, 306, 298,  11, 307, 291, 284,   4,   7
 7, 307,  11, 301, 308,   7,   4, 285, 294
 8, 308, 301, 300, 309, 294, 285, 286, 293
 9, 309, 300, 299, 310, 293, 286, 287, 292
10, 310, 299,  12,  13, 292, 287,   5,   8
11,   24,  351, 2153,  341,   13,   12,    5,    8
12,  341, 2153, 2154,  340,    8,    5,  316,  315
13,  340, 2154, 2155,  339,  315,  316,  317,  314
14,  339, 2155, 2156,  338,  314,  317,  318,  313
15,  338, 2156, 2157,  337,  313,  318,  319,  312
16,  337, 2157, 2158,  336,  312,  319,  320,  311
17,  336, 2158, 2159,  335,  311,  320,   16,   15
18,  335, 2159,  350,   23,   15,   16,   17,   18
19,   26,  352, 2160,  348,   24,  351, 2153,  341
20,  348, 2160, 2161,  347,  341, 2153, 2154,  340
** ... 764 like lines cut
*Element, type=C3D8H
111,    1,  557, 2240,  290,   83,  525, 2195,  552
112,  557,  556, 2241, 2240,  525,  526, 2196, 2195
113,  556,  555, 2242, 2241,  526,  527, 2197, 2196
114,  555,  554, 2243, 2242,  527,  528, 2198, 2197
115,  554,  553, 2244, 2243,  528,  529, 2199, 2198
116,  553,   32,  364, 2244,  529,   84,  530, 2199
117,  290, 2240, 2245,  289,  552, 2195, 2200,  551
118, 2240, 2241, 2246, 2245, 2195, 2196, 2201, 2200
119, 2241, 2242, 2247, 2246, 2196, 2197, 2202, 2201
120, 2242, 2243, 2248, 2247, 2197, 2198, 2203, 2202
121, 2243, 2244, 2249, 2248, 2198, 2199, 2204, 2203
122, 2244,  364,  365, 2249, 2199,  530,  531, 2204
123,  289, 2245, 2250,  288,  551, 2200, 2205,  550
124, 2245, 2246, 2251, 2250, 2200, 2201, 2206, 2205
125, 2246, 2247, 2252, 2251, 2201, 2202, 2207, 2206
126, 2247, 2248, 2253, 2252, 2202, 2203, 2208, 2207
127, 2248, 2249, 2254, 2253, 2203, 2204, 2209, 2208
128, 2249,  365,  366, 2254, 2204,  531,  532, 2209
129,  288, 2250, 2255,    6,  550, 2205, 2210,  549
130, 2250, 2251, 2256, 2255, 2205, 2206, 2211, 2210
** ... 1300 like lines cut
*Nset, nset=rubber-s
  133,  134,  136,  137,  151,  154,  157,  158,  165,  166,  176,  177,  184,  185,  204,  205
  206,  207,  208,  209,  210,  211,  212,  213,  214,  215,  216,  217,  218,  219,  220,  221
  222,  223,  224,  225,  226,  227,  228,  229,  230,  231,  232,  233,  234,  235,  240,  243
  755,  756,  757,  758,  759,  760,  761,  772,  773,  774,  775,  776,  777,  778,  843,  844
  845,  846,  847,  848,  849,  859,  860,  861,  862,  863,  864,  865,  891,  892, 1039, 1042
 1117, 1119, 1218, 1219, 1220, 1221, 1222, 1223, 1224, 1225, 1226, 1227, 1228, 1229, 1230, 1231
 1232, 1233, 1234, 1235, 1236, 1237, 1238, 1239, 1240, 1241, 1242, 1243, 1244, 1245, 1246, 1247
 1248, 1249, 1250, 1251, 1252, 1253, 1254, 1255, 1256, 1257, 1258, 1259, 1260, 1261, 1262, 1263
 1264, 1265, 1266, 1267, 1268, 1269, 1270, 1271, 1272, 1273, 1274, 1275, 1276, 1277, 1278, 1279
 1280, 1281, 1282, 1283, 1284, 1285, 1286, 1287, 1288, 1289, 1290, 1291, 1292, 1293, 1294, 1295
 1296, 1297, 1298, 1299, 1300, 1301, 1302, 1303, 1304, 1305, 1306, 1307, 1308, 1309, 1310, 1311
 1312, 1313, 1314, 1315, 1316, 1317, 1318, 1319, 1320, 1321, 1322, 1323, 1324, 1325, 1326, 1327
 1328, 1329, 1330, 1331, 1332, 1333, 1334, 1335, 1336, 1337, 1338, 1339, 1340, 1341, 1342, 1343
 1344, 1345, 1346, 1347, 1348, 1349, 1350, 1351, 1352, 1353, 1354, 1355, 1356, 1357, 1358, 1359
 1360, 1361, 1362, 1363, 1364, 1365, 1366, 1367, 1368, 1369, 1370, 1371, 1372, 1373, 1374, 1375
 1376, 1377, 1378, 1379, 1380, 1381, 1382, 1383, 1384, 1385, 1386, 1387, 1388, 1389, 1390, 1391
 1392, 1393, 1394, 1395, 1396, 1397, 1398, 1399, 1400, 1401, 1402, 1403, 1404, 1405, 1406, 1407
 1408, 1409, 1410, 1411, 1412, 1413, 1414, 1415, 1416, 1417, 1418, 1419, 1420, 1421, 1422, 1423
 1424, 1425, 1426, 1427, 1428, 1429, 1430, 1431, 1432, 1433, 1434, 1435, 1436, 1437, 1438, 1439
 1440, 1441, 1516, 1536, 1787, 1788, 1789, 1790, 1791, 1792, 1793, 1794, 1795, 1796, 1797, 1798
** ... 50 like lines cut
*Elset, elset=rubber-s
  769,  770,  771,  772,  773,  774,  775,  776,  777,  778,  779,  780,  781,  782,  783,  784
  785,  786,  787,  788,  789,  790,  791,  792,  793,  794,  795,  796,  797,  798,  799,  800
  801,  802,  803,  804,  805,  806,  807,  808,  809,  810,  811,  812,  813,  814,  815,  816
  817,  818,  819,  820,  821,  822,  823,  824,  825,  826,  827,  828,  829,  830,  831,  832
  833,  834,  835,  836,  837,  838,  839,  840,  841,  842,  843,  844,  845,  846,  847,  848
  849,  850,  851,  852,  853,  854,  855,  856,  857,  858,  859,  860,  861,  862,  863,  864
  865,  866,  867,  868,  869,  870,  871,  872,  873,  874,  875,  876,  877,  878,  879,  880
  881,  882,  883,  884,  885,  886,  887,  888,  889,  890,  891,  892,  893,  894,  895,  896
  897,  898,  899,  900,  901,  902,  903,  904,  905,  906,  907,  908,  909,  910,  911,  912
  913,  914,  915,  916,  917,  918,  919,  920,  921,  922,  923,  924,  925,  926,  927,  928
  929,  930,  931,  932,  933,  934,  935,  936,  937,  938,  939,  940,  941,  942,  943,  944
  945,  946,  947,  948,  949,  950,  951,  952,  953,  954,  955,  956,  957,  958,  959,  960
  961,  962,  963,  964,  965,  966,  967,  968,  969,  970,  971,  972,  973,  974,  975,  976
  977,  978,  979,  980,  981,  982,  983,  984,  985,  986,  987,  988,  989,  990,  991,  992
  993,  994,  995,  996,  997,  998,  999, 1000, 1001, 1002, 1003, 1004, 1005, 1006, 1007, 1008
 1009, 1010, 1011, 1012, 1013, 1014, 1015, 1016, 1017, 1018, 1019, 1020, 1021, 1022, 1023, 1024
 1857, 1858, 1859, 1860, 1861, 1862, 1863, 1864, 1865, 1866, 1867, 1868, 1869, 1870, 1871, 1872
 1873, 1874, 1875, 1876, 1877, 1878, 1879, 1880, 1881, 1882, 1883, 1884, 1885, 1886, 1887, 1888
 1889, 1890, 1891, 1892, 1893, 1894, 1895, 1896, 1897, 1898, 1899, 1900, 1901, 1902, 1903, 1904
 1905, 1906, 1907, 1908, 1909, 1910, 1911, 1912, 1913, 1914, 1915, 1916, 1917, 1918, 1919, 1920
** ... 12 like lines cut
*Nset, nset=rubber-f
  129,  130,  131,  132,  139,  140,  141,  142,  145,  146,  148,  149,  155,  156,  159,  160
  161,  162,  163,  164,  167,  170,  171,  172,  174,  175,  179,  182,  186,  187,  196,  197
  198,  199,  200,  201,  202,  203,  236,  237,  238,  239,  242,  244,  245,  246,  247,  248
  257,  258,  259,  260,  261,  262,  263,  264,  737,  738,  739,  740,  741,  742,  743,  744
  745,  746,  747,  748,  749,  750,  751,  752,  782,  783,  784,  785,  786,  787,  788,  789
  790,  791,  792,  793,  794,  795,  796,  797,  805,  806,  807,  808,  809,  810,  811,  819
  820,  821,  822,  823,  824,  825,  826,  828,  851,  852,  853,  854,  855,  856,  857,  866
  867,  868,  869,  870,  871,  872,  873,  874,  875,  876,  877,  878,  879,  880,  881,  882
  883,  884,  885,  886,  887,  888,  889,  890,  894,  896,  897,  898,  899,  900,  901,  902
  903,  904,  905,  906,  907,  908,  909,  910,  911,  912,  913,  914,  915,  916,  917,  918
  919,  920,  921,  922,  923,  924,  925,  926,  927,  928,  929,  930,  931,  932,  975,  976
  977,  978,  979,  980,  981,  989,  990,  991,  992,  993,  994,  995,  996,  997,  998,  999
 1000, 1001, 1002, 1003, 1004, 1005, 1006, 1007, 1008, 1009, 1010, 1011, 1012, 1013, 1014, 1015
 1016, 1040, 1041, 1044, 1052, 1053, 1054, 1055, 1056, 1057, 1058, 1066, 1067, 1068, 1069, 1070
 1071, 1072, 1093, 1094, 1095, 1096, 1097, 1098, 1099, 1100, 1101, 1102, 1103, 1104, 1105, 1106
 1107, 1108, 1109, 1110, 1111, 1112, 1113, 1115, 1116, 1148, 1149, 1150, 1151, 1152, 1153, 1154
 1155, 1156, 1157, 1158, 1159, 1160, 1161, 1162, 1163, 1164, 1165, 1166, 1167, 1168, 1169, 1170
 1171, 1172, 1173, 1174, 1175, 1176, 1177, 1178, 1179, 1180, 1181, 1182, 1183, 1184, 1185, 1186
 1187, 1188, 1189, 1190, 1191, 1192, 1193, 1194, 1195, 1196, 1197, 1198, 1199, 1200, 1201, 1202
 1203, 1204, 1205, 1206, 1207, 1208, 1209, 1210, 1211, 1212, 1213, 1214, 1215, 1216, 1217, 1456
** ... 55 like lines cut
*Elset, elset=rubber-f
  641,  642,  643,  644,  645,  646,  647,  648,  649,  650,  651,  652,  653,  654,  655,  656
  657,  658,  659,  660,  661,  662,  663,  664,  665,  666,  667,  668,  669,  670,  671,  672
  673,  674,  675,  676,  677,  678,  679,  680,  681,  682,  683,  684,  685,  686,  687,  688
  689,  690,  691,  692,  693,  694,  695,  696,  697,  698,  699,  700,  701,  702,  703,  704
  705,  706,  707,  708,  709,  710,  711,  712,  713,  714,  715,  716,  717,  718,  719,  720
  721,  722,  723,  724,  725,  726,  727,  728,  729,  730,  731,  732,  733,  734,  735,  736
  737,  738,  739,  740,  741,  742,  743,  744,  745,  746,  747,  748,  749,  750,  751,  752
  753,  754,  755,  756,  757,  758,  759,  760,  761,  762,  763,  764,  765,  766,  767,  768
 1041, 1042, 1043, 1044, 1045, 1046, 1047, 1048, 1049, 1050, 1051, 1052, 1053, 1054, 1055, 1056
 1057, 1058, 1059, 1060, 1061, 1062, 1063, 1064, 1065, 1066, 1067, 1068, 1069, 1070, 1071, 1072
 1073, 1074, 1075, 1076, 1077, 1078, 1079, 1080, 1081, 1082, 1083, 1084, 1085, 1086, 1087, 1088
 1089, 1090, 1091, 1092, 1093, 1094, 1095, 1096, 1097, 1098, 1099, 1100, 1101, 1102, 1103, 1104
 1153, 1154, 1155, 1156, 1157, 1158, 1159, 1160, 1161, 1162, 1163, 1164, 1165, 1166, 1167, 1168
 1169, 1170, 1171, 1172, 1173, 1174, 1175, 1176, 1177, 1178, 1179, 1180, 1181, 1182, 1183, 1184
 1185, 1186, 1187, 1188, 1189, 1190, 1191, 1192, 1193, 1194, 1195, 1196, 1197, 1198, 1199, 1200
 1201, 1202, 1203, 1204, 1205, 1206, 1207, 1208, 1209, 1210, 1211, 1212, 1213, 1214, 1215, 1216
 1289, 1290, 1291, 1292, 1293, 1294, 1295, 1296, 1297, 1298, 1299, 1300, 1301, 1302, 1303, 1304
 1305, 1306, 1307, 1308, 1309, 1310, 1311, 1312, 1313, 1314, 1315, 1316, 1317, 1318, 1319, 1320
 1321, 1322, 1323, 1324, 1325, 1326, 1327, 1328, 1329, 1330, 1331, 1332, 1333, 1334, 1335, 1336
 1337, 1338, 1339, 1340, 1341, 1342, 1343, 1344, 1345, 1346, 1347, 1348, 1349, 1350, 1351, 1352
** ... 13 like lines cut
*Nset, nset=rubber-frame
  129,  130,  131,  132,  133,  134,  136,  137,  139,  140,  141,  142,  145,  146,  148,  149
  151,  154,  155,  156,  157,  158,  159,  160,  161,  162,  163,  164,  165,  166,  167,  170
  171,  172,  174,  175,  176,  177,  179,  182,  184,  185,  186,  187,  196,  197,  198,  199
  200,  201,  202,  203,  204,  205,  206,  207,  208,  209,  210,  211,  212,  213,  214,  215
  216,  217,  218,  219,  220,  221,  222,  223,  224,  225,  226,  227,  228,  229,  230,  231
  232,  233,  234,  235,  236,  237,  238,  239,  240,  242,  243,  244,  245,  246,  247,  248
  257,  258,  259,  260,  261,  262,  263,  264,  737,  738,  739,  740,  741,  742,  743,  744
  745,  746,  747,  748,  749,  750,  751,  752,  755,  756,  757,  758,  759,  760,  761,  772
  773,  774,  775,  776,  777,  778,  782,  783,  784,  785,  786,  787,  788,  789,  790,  791
  792,  793,  794,  795,  796,  797,  805,  806,  807,  808,  809,  810,  811,  819,  820,  821
  822,  823,  824,  825,  826,  828,  843,  844,  845,  846,  847,  848,  849,  851,  852,  853
  854,  855,  856,  857,  859,  860,  861,  862,  863,  864,  865,  866,  867,  868,  869,  870
  871,  872,  873,  874,  875,  876,  877,  878,  879,  880,  881,  882,  883,  884,  885,  886
  887,  888,  889,  890,  891,  892,  894,  896,  897,  898,  899,  900,  901,  902,  903,  904
  905,  906,  907,  908,  909,  910,  911,  912,  913,  914,  915,  916,  917,  918,  919,  920
  921,  922,  923,  924,  925,  926,  927,  928,  929,  930,  931,  932,  975,  976,  977,  978
  979,  980,  981,  989,  990,  991,  992,  993,  994,  995,  996,  997,  998,  999, 1000, 1001
 1002, 1003, 1004, 1005, 1006, 1007, 1008, 1009, 1010, 1011, 1012, 1013, 1014, 1015, 1016, 1039
 1040, 1041, 1042, 1044, 1052, 1053, 1054, 1055, 1056, 1057, 1058, 1066, 1067, 1068, 1069, 1070
 1071, 1072, 1093, 1094, 1095, 1096, 1097, 1098, 1099, 1100, 1101, 1102, 1103, 1104, 1105, 1106
** ... 76 like lines cut
*Elset, elset=rubber-frame
 1289, 1290, 1291, 1292, 1293, 1294, 1295, 1296, 1297, 1298, 1299, 1300, 1301, 1302, 1303, 1304
 1305, 1306, 1307, 1308, 1309, 1310, 1311, 1312, 1313, 1314, 1315, 1316, 1317, 1318, 1319, 1320
 1321, 1322, 1323, 1324, 1325, 1326, 1327, 1328, 1329, 1330, 1331, 1332, 1333, 1334, 1335, 1336
 1337, 1338, 1339, 1340, 1341, 1342, 1343, 1344, 1345, 1346, 1347, 1348, 1349, 1350, 1351, 1352
 1353, 1354, 1355, 1356, 1357, 1358, 1359, 1360, 1361, 1362, 1363, 1364, 1365, 1366, 1367, 1368
 1369, 1370, 1371, 1372, 1373, 1374, 1375, 1376, 1377, 1378, 1379, 1380, 1381, 1382, 1383, 1384
 1385, 1386, 1387, 1388, 1389, 1390, 1391, 1392, 1393, 1394, 1395, 1396, 1397, 1398, 1399, 1400
 1401, 1402, 1403, 1404, 1405, 1406, 1407, 1408, 1409, 1410, 1411, 1412, 1413, 1414, 1415, 1416
 1417, 1418, 1419, 1420, 1421, 1422, 1423, 1424, 1425, 1426, 1427, 1428, 1429, 1430, 1431, 1432
 1433, 1434, 1435, 1436, 1437, 1438, 1439, 1440, 1441, 1442, 1443, 1444, 1445, 1446, 1447, 1448
 1449, 1450, 1451, 1452, 1453, 1454, 1455, 1456, 1457, 1458, 1459, 1460, 1461, 1462, 1463, 1464
 1465, 1466, 1467, 1468, 1469, 1470, 1471, 1472, 1473, 1474, 1475, 1476, 1477, 1478, 1479, 1480
 1481, 1482, 1483, 1484, 1485, 1486, 1487, 1488, 1489, 1490, 1491, 1492, 1493, 1494, 1495, 1496
 1497, 1498, 1499, 1500, 1501, 1502, 1503, 1504, 1505, 1506, 1507, 1508, 1509, 1510, 1511, 1512
 1513, 1514, 1515, 1516, 1517, 1518, 1519, 1520, 1521, 1522, 1523, 1524, 1525, 1526, 1527, 1528
 1529, 1530, 1531, 1532, 1533, 1534, 1535, 1536, 1537, 1538, 1539, 1540, 1541, 1542, 1543, 1544
 1545, 1546, 1547, 1548, 1549, 1550, 1551, 1552, 1553, 1554, 1555, 1556, 1557, 1558, 1559, 1560
 1857, 1858, 1859, 1860, 1861, 1862, 1863, 1864, 1865, 1866, 1867, 1868, 1869, 1870, 1871, 1872
 1873, 1874, 1875, 1876, 1877, 1878, 1879, 1880, 1881, 1882, 1883, 1884, 1885, 1886, 1887, 1888
 1889, 1890, 1891, 1892, 1893, 1894, 1895, 1896, 1897, 1898, 1899, 1900, 1901, 1902, 1903, 1904
** ... 13 like lines cut
*Nset, nset=frame-ii
   91,   92,   95,   98,   99,  100,  101,  102,  117,  118,  121,  124,  125,  126,  127,  128
  129,  130,  131,  132,  133,  134,  135,  136,  137,  138,  139,  140,  141,  142,  143,  144
  145,  146,  147,  148,  149,  150,  151,  152,  153,  154,  155,  156,  157,  158,  159,  160
  161,  162,  163,  164,  165,  166,  167,  168,  169,  170,  171,  172,  173,  174,  175,  176
  177,  178,  179,  180,  181,  182,  183,  184,  185,  186,  187,  240,  241,  242,  243,  244
  581,  585,  596,  597,  598,  599,  600,  601,  602,  603,  604,  612,  613,  614,  615,  616
  617,  618,  619,  620,  621,  622,  695,  699,  710,  711,  712,  713,  714,  715,  716,  717
  718,  726,  727,  728,  729,  730,  731,  732,  733,  734,  735,  736,  737,  738,  739,  740
  741,  742,  743,  744,  745,  746,  747,  748,  749,  750,  751,  752,  753,  754,  755,  756
  757,  758,  759,  760,  761,  762,  763,  764,  765,  766,  767,  768,  769,  770,  771,  772
  773,  774,  775,  776,  777,  778,  779,  780,  781,  782,  783,  784,  785,  786,  787,  788
  789,  790,  791,  792,  793,  794,  795,  796,  797,  798,  799,  800,  801,  802,  803,  804
  805,  806,  807,  808,  809,  810,  811,  812,  813,  814,  815,  816,  817,  818,  819,  820
  821,  822,  823,  824,  825,  826,  827,  828,  829,  830,  831,  832,  833,  834,  835,  836
  837,  838,  839,  840,  841,  842,  843,  844,  845,  846,  847,  848,  849,  850,  851,  852
  853,  854,  855,  856,  857,  858,  859,  860,  861,  862,  863,  864,  865,  866,  867,  868
  869,  870,  871,  872,  873,  874,  875,  876,  877,  878,  879,  880,  881,  882,  883,  884
  885,  886,  887,  888,  889,  890,  891,  892,  893,  894,  895,  896,  897,  898,  899,  900
  901,  902,  903,  904,  905,  906,  907,  908,  909,  910,  911,  912,  913,  914,  915,  916
  917,  918,  919,  920,  921,  922,  923,  924,  925,  926,  927,  928,  929,  930,  931,  932
** ... 37 like lines cut
*Elset, elset=frame-ii
  369,  370,  371,  372,  373,  374,  375,  376,  377,  378,  379,  380,  381,  382,  383,  384
  385,  386,  387,  388,  389,  390,  391,  392,  393,  394,  395,  396,  397,  398,  399,  400
  401,  402,  403,  404,  405,  406,  407,  408,  409,  410,  411,  412,  413,  414,  415,  416
  417,  418,  419,  420,  421,  422,  423,  424,  425,  426,  427,  428,  429,  430,  431,  432
  433,  434,  435,  436,  437,  438,  439,  440,  441,  442,  443,  444,  445,  446,  447,  448
  449,  450,  451,  452,  453,  454,  455,  456,  457,  458,  459,  460,  461,  462,  463,  464
  465,  466,  467,  468,  469,  470,  471,  472,  473,  474,  475,  476,  477,  478,  479,  480
  481,  482,  483,  484,  485,  486,  487,  488,  489,  490,  491,  492,  493,  494,  495,  496
  497,  498,  499,  500,  501,  502,  503,  504,  505,  506,  507,  508,  509,  510,  511,  512
  513,  514,  515,  516,  517,  518,  519,  520,  521,  522,  523,  524,  525,  526,  527,  528
  529,  530,  531,  532,  533,  534,  535,  536,  537,  538,  539,  540,  541,  542,  543,  544
  545,  546,  547,  548,  549,  550,  551,  552,  553,  554,  555,  556,  557,  558,  559,  560
  561,  562,  563,  564,  565,  566,  567,  568,  569,  570,  571,  572,  573,  574,  575,  576
  577,  578,  579,  580,  581,  582,  583,  584,  585,  586,  587,  588,  589,  590,  591,  592
  593,  594,  595,  596,  597,  598,  599,  600,  601,  602,  603,  604,  605,  606,  607,  608
  609,  610,  611,  612,  613,  614,  615,  616,  617,  618,  619,  620,  621,  622,  623,  624
 1025, 1026, 1027, 1028, 1029, 1030, 1031, 1032, 1033, 1034, 1035, 1036, 1037, 1038, 1039, 1040
 1105, 1106, 1107, 1108, 1109, 1110, 1111, 1112, 1113, 1114, 1115, 1116, 1117, 1118, 1119, 1120
 1121, 1122, 1123, 1124, 1125, 1126, 1127, 1128, 1129, 1130, 1131, 1132, 1133, 1134, 1135, 1136
 1137, 1138, 1139, 1140, 1141, 1142, 1143, 1144, 1145, 1146, 1147, 1148, 1149, 1150, 1151, 1152
*Nset, nset=rubber
  129,  130,  131,  132,  133,  134,  136,  137,  139,  140,  141,  142,  145,  146,  148,  149
  151,  154,  155,  156,  157,  158,  159,  160,  161,  162,  163,  164,  165,  166,  167,  170
  171,  172,  174,  175,  176,  177,  179,  182,  184,  185,  186,  187,  196,  197,  198,  199
  200,  201,  202,  203,  204,  205,  206,  207,  208,  209,  210,  211,  212,  213,  214,  215
  216,  217,  218,  219,  220,  221,  222,  223,  224,  225,  226,  227,  228,  229,  230,  231
  232,  233,  234,  235,  236,  237,  238,  239,  240,  242,  243,  244,  245,  246,  247,  248
  257,  258,  259,  260,  261,  262,  263,  264,  737,  738,  739,  740,  741,  742,  743,  744
  745,  746,  747,  748,  749,  750,  751,  752,  755,  756,  757,  758,  759,  760,  761,  772
  773,  774,  775,  776,  777,  778,  782,  783,  784,  785,  786,  787,  788,  789,  790,  791
  792,  793,  794,  795,  796,  797,  805,  806,  807,  808,  809,  810,  811,  819,  820,  821
  822,  823,  824,  825,  826,  828,  843,  844,  845,  846,  847,  848,  849,  851,  852,  853
  854,  855,  856,  857,  859,  860,  861,  862,  863,  864,  865,  866,  867,  868,  869,  870
  871,  872,  873,  874,  875,  876,  877,  878,  879,  880,  881,  882,  883,  884,  885,  886
  887,  888,  889,  890,  891,  892,  894,  896,  897,  898,  899,  900,  901,  902,  903,  904
  905,  906,  907,  908,  909,  910,  911,  912,  913,  914,  915,  916,  917,  918,  919,  920
  921,  922,  923,  924,  925,  926,  927,  928,  929,  930,  931,  932,  975,  976,  977,  978
  979,  980,  981,  989,  990,  991,  992,  993,  994,  995,  996,  997,  998,  999, 1000, 1001
 1002, 1003, 1004, 1005, 1006, 1007, 1008, 1009, 1010, 1011, 1012, 1013, 1014, 1015, 1016, 1039
 1040, 1041, 1042, 1044, 1052, 1053, 1054, 1055, 1056, 1057, 1058, 1066, 1067, 1068, 1069, 1070
 1071, 1072, 1093, 1094, 1095, 1096, 1097, 1098, 1099, 1100, 1101, 1102, 1103, 1104, 1105, 1106
** ... 125 like lines cut
*Elset, elset=rubber
  641,  642,  643,  644,  645,  646,  647,  648,  649,  650,  651,  652,  653,  654,  655,  656
  657,  658,  659,  660,  661,  662,  663,  664,  665,  666,  667,  668,  669,  670,  671,  672
  673,  674,  675,  676,  677,  678,  679,  680,  681,  682,  683,  684,  685,  686,  687,  688
  689,  690,  691,  692,  693,  694,  695,  696,  697,  698,  699,  700,  701,  702,  703,  704
  705,  706,  707,  708,  709,  710,  711,  712,  713,  714,  715,  716,  717,  718,  719,  720
  721,  722,  723,  724,  725,  726,  727,  728,  729,  730,  731,  732,  733,  734,  735,  736
  737,  738,  739,  740,  741,  742,  743,  744,  745,  746,  747,  748,  749,  750,  751,  752
  753,  754,  755,  756,  757,  758,  759,  760,  761,  762,  763,  764,  765,  766,  767,  768
  769,  770,  771,  772,  773,  774,  775,  776,  777,  778,  779,  780,  781,  782,  783,  784
  785,  786,  787,  788,  789,  790,  791,  792,  793,  794,  795,  796,  797,  798,  799,  800
  801,  802,  803,  804,  805,  806,  807,  808,  809,  810,  811,  812,  813,  814,  815,  816
  817,  818,  819,  820,  821,  822,  823,  824,  825,  826,  827,  828,  829,  830,  831,  832
  833,  834,  835,  836,  837,  838,  839,  840,  841,  842,  843,  844,  845,  846,  847,  848
  849,  850,  851,  852,  853,  854,  855,  856,  857,  858,  859,  860,  861,  862,  863,  864
  865,  866,  867,  868,  869,  870,  871,  872,  873,  874,  875,  876,  877,  878,  879,  880
  881,  882,  883,  884,  885,  886,  887,  888,  889,  890,  891,  892,  893,  894,  895,  896
  897,  898,  899,  900,  901,  902,  903,  904,  905,  906,  907,  908,  909,  910,  911,  912
  913,  914,  915,  916,  917,  918,  919,  920,  921,  922,  923,  924,  925,  926,  927,  928
  929,  930,  931,  932,  933,  934,  935,  936,  937,  938,  939,  940,  941,  942,  943,  944
  945,  946,  947,  948,  949,  950,  951,  952,  953,  954,  955,  956,  957,  958,  959,  960
** ... 45 like lines cut
*Nset, nset=rubber-ff
    1,    6,    7,    8,   13,   14,   15,   18,   23,   24,   30,   31,   32,   36,   37,   42
   43,   44,   49,   50,   51,   54,   59,   60,   67,   68,   69,   70,   83,   84,   85,   86
   87,   88,  107,  108,  109,  110,  111,  112,  249,  250,  251,  252,  253,  254,  255,  256
  288,  289,  290,  291,  292,  293,  294,  302,  303,  304,  305,  306,  307,  308,  309,  310
  311,  312,  313,  314,  315,  335,  336,  337,  338,  339,  340,  341,  360,  361,  362,  363
  364,  365,  366,  374,  375,  376,  377,  378,  379,  380,  381,  382,  390,  391,  392,  393
  394,  395,  396,  404,  405,  406,  407,  408,  409,  410,  411,  412,  413,  414,  415,  416
  417,  437,  438,  439,  440,  441,  442,  443,  469,  470,  471,  472,  473,  474,  475,  476
  477,  478,  479,  480,  525,  526,  527,  528,  529,  530,  531,  532,  533,  534,  535,  536
  537,  538,  539,  540,  541,  542,  543,  544,  545,  546,  547,  548,  549,  550,  551,  552
  553,  554,  555,  556,  557,  558,  559,  560,  561,  562,  563,  564,  637,  638,  639,  640
  641,  642,  643,  644,  645,  646,  647,  648,  649,  650,  651,  652,  653,  654,  655,  656
  657,  658,  659,  660,  661,  662,  663,  664,  665,  666,  667,  668,  669,  670,  671,  686
  687,  688,  689,  690,  691,  692,  693,  694, 1587, 1588, 1589, 1590, 1591, 1592, 1593, 1594
 1595, 1596, 1597, 1598, 1599, 1600, 1601, 1602, 1603, 1604, 1605, 1606, 1607, 1608, 1609, 1610
 1611, 1612, 1613, 1614, 1615, 1616, 1617, 1618, 1619, 1620, 1621, 1622, 1623, 1624, 1625, 1626
 1627, 1628, 1629, 1630, 1631, 1632, 1633, 1634, 1635, 1636, 1637, 1638, 1639, 1640, 1641, 1642
 1643, 1644, 1645, 1646, 1647, 1648, 1649, 1650, 1651, 1652, 1653, 1654, 1655, 1656, 1657, 1658
 2195, 2196, 2197, 2198, 2199, 2200, 2201, 2202, 2203, 2204, 2205, 2206, 2207, 2208, 2209, 2210
 2211, 2212, 2213, 2214, 2215, 2216, 2217, 2218, 2219, 2220, 2221, 2222, 2223, 2224, 2225, 2226
** ... 10 like lines cut
*Elset, elset=rubber-ff
  111,  112,  113,  114,  115,  116,  117,  118,  119,  120,  121,  122,  123,  124,  125,  126
  127,  128,  129,  130,  131,  132,  133,  134,  135,  136,  137,  138,  139,  140,  141,  142
  143,  144,  145,  146,  147,  148,  149,  150,  151,  152,  153,  154,  155,  156,  157,  158
  159,  160,  161,  162,  163,  164,  165,  166,  167,  168,  169,  170,  251,  252,  253,  254
  255,  256,  257,  258,  259,  260,  261,  262,  263,  264,  265,  266,  267,  268,  269,  270
  271,  272,  273,  274,  275,  276,  277,  278,  279,  280,  281,  282,  283,  284,  285,  286
  287,  288,  289,  290,  291,  292,  293,  294,  295,  296,  297,  298,  299,  300,  301,  302
  303,  304,  305,  306,  307,  308,  309,  310, 1217, 1218, 1219, 1220, 1221, 1222, 1223, 1224
 1225, 1226, 1227, 1228, 1229, 1230, 1231, 1232, 1233, 1234, 1235, 1236, 1237, 1238, 1239, 1240
 1241, 1242, 1243, 1244, 1245, 1246, 1247, 1248, 1249, 1250, 1251, 1252, 1253, 1254, 1255, 1256
 1257, 1258, 1259, 1260, 1261, 1262, 1263, 1264, 1265, 1266, 1267, 1268, 1269, 1270, 1271, 1272
 1273, 1274, 1275, 1276, 1277, 1278, 1279, 1280, 1281, 1282, 1283, 1284, 1285, 1286, 1287, 1288
*Nset, nset=frame
    1,    2,    3,    4,    5,    6,    7,    8,    9,   10,   11,   12,   13,   14,   15,   16
   17,   18,   19,   20,   21,   22,   23,   24,   25,   26,   27,   28,   29,   30,   31,   32
   33,   34,   35,   36,   37,   38,   39,   40,   41,   42,   43,   44,   45,   46,   47,   48
   49,   50,   51,   52,   53,   54,   55,   56,   57,   58,   59,   60,   61,   62,   63,   64
   65,   66,   67,   68,   69,   70,   71,   72,   73,   74,   75,   76,   77,   78,   79,   80
   81,   82,   87,   88,   89,   90,   95,   98,  102,  103,  104,  105,  106,  111,  112,  113
  114,  115,  116,  117,  118,  129,  130,  131,  132,  133,  134,  135,  136,  137,  138,  139
  140,  141,  142,  143,  144,  145,  146,  147,  148,  149,  150,  151,  152,  153,  154,  155
  156,  157,  158,  159,  160,  161,  162,  163,  164,  165,  166,  167,  168,  169,  170,  171
  172,  173,  174,  175,  176,  177,  178,  179,  180,  181,  182,  183,  184,  185,  186,  187
  188,  189,  190,  191,  192,  193,  194,  195,  208,  209,  210,  211,  216,  217,  218,  219
  224,  225,  226,  227,  232,  233,  234,  235,  240,  241,  242,  243,  244,  257,  258,  261
  262,  265,  266,  267,  268,  269,  270,  271,  272,  273,  274,  275,  276,  277,  278,  279
  280,  281,  282,  283,  284,  285,  286,  287,  288,  289,  290,  291,  292,  293,  294,  295
  296,  297,  298,  299,  300,  301,  302,  303,  304,  305,  306,  307,  308,  309,  310,  311
  312,  313,  314,  315,  316,  317,  318,  319,  320,  321,  322,  323,  324,  325,  326,  327
  328,  329,  330,  331,  332,  333,  334,  335,  336,  337,  338,  339,  340,  341,  342,  343
  344,  345,  346,  347,  348,  349,  350,  351,  352,  353,  354,  355,  356,  357,  358,  359
  360,  361,  362,  363,  364,  365,  366,  367,  368,  369,  370,  371,  372,  373,  374,  375
  376,  377,  378,  379,  380,  381,  382,  383,  384,  385,  386,  387,  388,  389,  390,  391
** ... 113 like lines cut
*Elset, elset=frame
    1,    2,    3,    4,    5,    6,    7,    8,    9,   10,   11,   12,   13,   14,   15,   16
   17,   18,   19,   20,   21,   22,   23,   24,   25,   26,   27,   28,   29,   30,   31,   32
   33,   34,   35,   36,   37,   38,   39,   40,   41,   42,   43,   44,   45,   46,   47,   48
   49,   50,   51,   52,   53,   54,   55,   56,   57,   58,   59,   60,   61,   62,   63,   64
   65,   66,   67,   68,   69,   70,   71,   72,   73,   74,   75,   76,   77,   78,   79,   80
   81,   82,   83,   84,   85,   86,   87,   88,   89,   90,   91,   92,   93,   94,   95,   96
   97,   98,   99,  100,  101,  102,  103,  104,  105,  106,  107,  108,  109,  110,  171,  172
  173,  174,  175,  176,  177,  178,  179,  180,  181,  182,  183,  184,  185,  186,  187,  188
  189,  190,  191,  192,  193,  194,  243,  244,  245,  246,  247,  248,  249,  250,  311,  312
  313,  314,  315,  316,  317,  318,  319,  320,  369,  370,  371,  372,  373,  374,  375,  376
  377,  378,  379,  380,  381,  382,  383,  384,  385,  386,  387,  388,  389,  390,  391,  392
  393,  394,  395,  396,  397,  398,  399,  400,  401,  402,  403,  404,  405,  406,  407,  408
  409,  410,  411,  412,  413,  414,  415,  416,  417,  418,  419,  420,  421,  422,  423,  424
  425,  426,  427,  428,  429,  430,  431,  432,  433,  434,  435,  436,  437,  438,  439,  440
  441,  442,  443,  444,  445,  446,  447,  448,  449,  450,  451,  452,  453,  454,  455,  456
  457,  458,  459,  460,  461,  462,  463,  464,  465,  466,  467,  468,  469,  470,  471,  472
  473,  474,  475,  476,  477,  478,  479,  480,  481,  482,  483,  484,  485,  486,  487,  488
  489,  490,  491,  492,  493,  494,  495,  496,  497,  498,  499,  500,  501,  502,  503,  504
  505,  506,  507,  508,  509,  510,  511,  512,  513,  514,  515,  516,  517,  518,  519,  520
  521,  522,  523,  524,  525,  526,  527,  528,  529,  530,  531,  532,  533,  534,  535,  536
** ... 29 like lines cut
*Nset, nset=_PickedSet89, internal
    3,    4,   10,   11,   27,   28,   33,   34,   39,   40,   46,   47,   91,   92,   93,   94
   95,   96,   97,   98,   99,  100,  101,  102,  113,  114,  115,  116,  117,  118,  119,  120
  121,  122,  123,  124,  125,  126,  127,  128,  284,  298,  356,  370,  386,  400,  581,  582
  583,  584,  585,  586,  587,  588,  589,  590,  591,  592,  593,  594,  595,  596,  597,  598
  599,  600,  601,  602,  603,  604,  605,  606,  607,  608,  609,  610,  611,  612,  613,  614
  615,  616,  617,  618,  619,  620,  621,  622,  675,  682,  695,  696,  697,  698,  699,  700
  701,  702,  703,  704,  705,  706,  707,  708,  709,  710,  711,  712,  713,  714,  715,  716
  717,  718,  719,  720,  721,  722,  723,  724,  725,  726,  727,  728,  729,  730,  731,  732
  733,  734,  735,  736, 2299, 2300, 2301, 2302, 2303, 2304, 2305, 2306, 2307, 2308, 2309, 2310
 2311, 2312, 2313, 2314, 2315, 2316, 2317, 2318, 2319, 2320, 2321, 2322, 2323, 2324, 2325, 2326
 2327, 2328, 2329, 2330, 2331, 2332, 2333, 2334, 2335, 2336, 2337, 2338, 2429, 2430, 2431, 2432
 2433, 2434, 2435, 2436, 2437, 2438, 2439, 2440, 2441, 2442, 2443, 2444, 2445, 2446, 2447, 2448
 2449, 2450, 2451, 2452, 2453, 2454, 2455, 2456, 2457, 2458, 2459, 2460, 2461, 2462, 2463, 2464
 2465, 2466, 2467, 2468, 4096, 4097, 4098, 4099, 4100, 4101, 4102, 4103, 4104, 4105, 4106, 4107
 4108, 4109, 4110, 4111, 4112, 4113, 4114, 4115, 4116, 4117
*Elset, elset=_PickedSet89, internal
 195, 196, 197, 198, 199, 200, 201, 202, 203, 204, 205, 206, 207, 208, 209, 210
 211, 212, 213, 214, 215, 216, 217, 218, 219, 220, 221, 222, 223, 224, 225, 226
 227, 228, 229, 230, 231, 232, 233, 234, 235, 236, 237, 238, 239, 240, 241, 242
 321, 322, 323, 324, 325, 326, 327, 328, 329, 330, 331, 332, 333, 334, 335, 336
 337, 338, 339, 340, 341, 342, 343, 344, 345, 346, 347, 348, 349, 350, 351, 352
 353, 354, 355, 356, 357, 358, 359, 360, 361, 362, 363, 364, 365, 366, 367, 368
** Section: Section-1
*Solid Section, elset=frame, material=ABS
,
** Section: Section-4
*Solid Section, elset=rubber-ff, material=DE-umat-ff
,
** Section: Section-4
*Solid Section, elset=_PickedSet89, material=DE-umat-ff
,
** Section: Section-3
*Solid Section, elset=rubber-f, material=DE-umat-f
,
** Section: Section-2
*Solid Section, elset=rubber-s, material=DE-umat-b
,
*End Part
**  
*Part, name=Part-2
*Node
      1, 0.0299999993,  0.300000012, 0.00100000005
      2, 0.0299999993,  0.297500014, 0.00100000005
      3, 0.0299999993,  0.294999987, 0.00100000005
      4, 0.0299999993,  0.292499989, 0.00100000005
      5, 0.0299999993,  0.289999992, 0.00100000005
      6, 0.0299999993,  0.287499994, 0.00100000005
      7, 0.0299999993,  0.284999996, 0.00100000005
      8, 0.0299999993,  0.282499999, 0.00100000005
      9, 0.0299999993,  0.280000001, 0.00100000005
     10, 0.0299999993,  0.277500004, 0.00100000005
     11, 0.0299999993,  0.275000006, 0.00100000005
     12, 0.0299999993,  0.272500008, 0.00100000005
     13, 0.0299999993,  0.270000011, 0.00100000005
     14, 0.0299999993,  0.267500013, 0.00100000005
     15, 0.0299999993,  0.264999986, 0.00100000005
     16, 0.0299999993,  0.262499988, 0.00100000005
     17, 0.0299999993,   0.25999999, 0.00100000005
     18, 0.0299999993,  0.257499993, 0.00100000005
     19, 0.0299999993,  0.254999995, 0.00100000005
     20, 0.0299999993,  0.252499998, 0.00100000005
** ... 6030 like lines cut
*Element, type=C3D8R
   1,  243,  244,  365,  364,    1,    2,  123,  122
   2,  244,  245,  366,  365,    2,    3,  124,  123
   3,  245,  246,  367,  366,    3,    4,  125,  124
   4,  246,  247,  368,  367,    4,    5,  126,  125
   5,  247,  248,  369,  368,    5,    6,  127,  126
   6,  248,  249,  370,  369,    6,    7,  128,  127
   7,  249,  250,  371,  370,    7,    8,  129,  128
   8,  250,  251,  372,  371,    8,    9,  130,  129
   9,  251,  252,  373,  372,    9,   10,  131,  130
  10,  252,  253,  374,  373,   10,   11,  132,  131
  11,  253,  254,  375,  374,   11,   12,  133,  132
  12,  254,  255,  376,  375,   12,   13,  134,  133
  13,  255,  256,  377,  376,   13,   14,  135,  134
  14,  256,  257,  378,  377,   14,   15,  136,  135
  15,  257,  258,  379,  378,   15,   16,  137,  136
  16,  258,  259,  380,  379,   16,   17,  138,  137
  17,  259,  260,  381,  380,   17,   18,  139,  138
  18,  260,  261,  382,  381,   18,   19,  140,  139
  19,  261,  262,  383,  382,   19,   20,  141,  140
  20,  262,  263,  384,  383,   20,   21,  142,  141
** ... 2860 like lines cut
*Nset, nset=_PickedSet2, internal, generate
    1,  6050,     1
*Elset, elset=_PickedSet2, internal, generate
    1,  2880,     1
** Section: Section-5
*Solid Section, elset=_PickedSet2, material=rr
,
*End Part
**  
**
** ASSEMBLY
**
*Assembly, name=Assembly
**  
*Instance, name=Part-1-1, part=Part-1
       0.005,           0.,           0.
*End Instance
**  
*Instance, name=Part-2-1, part=Part-2
          0.,       0.0095,      -0.0642
*End Instance
**  
*Nset, nset=_PickedSet5, internal, instance=Part-1-1
  161,  162,  172,  182,  196,  197,  198,  199,  875,  876,  877,  878,  879,  880,  881,  919
  920,  921,  922,  923,  924,  925, 1052, 1053, 1054, 1055, 1056, 1057, 1058, 1148, 1149, 1150
 1151, 1152, 1153, 1154, 1155, 1156, 1157, 1158, 1159, 1160, 1161, 1162, 1163, 1164, 1165, 1166
 1167, 1168, 1169, 1170, 1171, 1172, 1173, 1174, 1175, 1176, 1177, 1178, 1179, 1180, 1181, 1182
 2693, 2694, 2695, 2696, 2697, 2698, 2699, 2700, 2701, 2702, 2703, 2704, 2705, 2706, 2707, 2708
 2709, 2710, 2711, 2712, 2713, 2714, 2715, 2716, 2717, 2718, 2719, 2720, 2721, 2722, 2723, 2724
 2725, 2726, 2727, 2728, 2729, 2730, 2731, 2732, 2733, 2734, 2735, 2736, 2737, 2738, 2739, 2740
 2741, 2742, 2743, 2744, 2745, 2746, 2747, 2748, 2749, 2750, 2751, 2752, 2753, 2754, 2755, 2756
 2757, 2758, 2759, 2760, 2761, 2762, 2763, 2764, 2765, 2766, 2767, 2768, 2769, 2770, 2771, 2772
 2773, 2774, 2775, 2776, 2777, 2778, 2779, 2780, 2781, 2782, 2783, 2784, 2785, 2786, 2787, 2788
 2789, 2790
*Elset, elset=_PickedSet5, internal, instance=Part-1-1, generate
 641,  704,    1
*Nset, nset=_PickedSet6, internal, instance=Part-1-1
  159,  160,  163,  164,  245,  246,  247,  248,  868,  869,  870,  871,  872,  873,  874,  882
  883,  884,  885,  886,  887,  888,  926,  927,  928,  929,  930,  931,  932, 1066, 1067, 1068
 1069, 1070, 1071, 1072, 1559, 1560, 1561, 1562, 1563, 1564, 1565, 1566, 1567, 1568, 1569, 1570
 1571, 1572, 1573, 1574, 1575, 1576, 1577, 1578, 1579, 1580, 1581, 1582, 1583, 1584, 1585, 1586
 3435, 3436, 3437, 3438, 3439, 3440, 3441, 3442, 3443, 3444, 3445, 3446, 3447, 3448, 3449, 3450
 3451, 3452, 3453, 3454, 3455, 3456, 3457, 3458, 3459, 3460, 3461, 3462, 3463, 3464, 3465, 3466
 3467, 3468, 3469, 3470, 3471, 3472, 3473, 3474, 3475, 3476, 3477, 3478, 3479, 3480, 3481, 3482
 3483, 3484, 3485, 3486, 3487, 3488, 3489, 3490, 3491, 3492, 3493, 3494, 3495, 3496, 3497, 3498
 3499, 3500, 3501, 3502, 3503, 3504, 3505, 3506, 3507, 3508, 3509, 3510, 3511, 3512, 3513, 3514
 3515, 3516, 3517, 3518, 3519, 3520, 3521, 3522, 3523, 3524, 3525, 3526, 3527, 3528, 3529, 3530
 3531, 3532
*Elset, elset=_PickedSet6, internal, instance=Part-1-1, generate
 1153,  1216,     1
*Nset, nset=_PickedSet7, internal, instance=Part-1-1
  204,  205,  206,  207,  208,  209,  210,  211, 1218, 1219, 1220, 1221, 1222, 1223, 1224, 1225
 1226, 1227, 1228, 1229, 1230, 1231, 1232, 1233, 1234, 1235, 1236, 1237, 1238, 1239, 1240, 1241
 1242, 1243, 1244, 1245, 1246, 1247, 1248, 1249, 1250, 1251, 1252, 1253, 1254, 1255, 1256, 1257
 1258, 1259, 1260, 1261, 1262, 1263, 1264, 1265, 1266, 1267, 1268, 1269, 1270, 1271, 1272, 1273
 2889, 2890, 2891, 2892, 2893, 2894, 2895, 2896, 2897, 2898, 2899, 2900, 2901, 2902, 2903, 2904
 2905, 2906, 2907, 2908, 2909, 2910, 2911, 2912, 2913, 2914, 2915, 2916, 2917, 2918, 2919, 2920
 2921, 2922, 2923, 2924, 2925, 2926, 2927, 2928, 2929, 2930, 2931, 2932, 2933, 2934, 2935, 2936
 2937, 2938, 2939, 2940, 2941, 2942, 2943, 2944, 2945, 2946, 2947, 2948, 2949, 2950, 2951, 2952
 2953, 2954, 2955, 2956, 2957, 2958, 2959, 2960, 2961, 2962, 2963, 2964, 2965, 2966, 2967, 2968
 2969, 2970, 2971, 2972, 2973, 2974, 2975, 2976, 2977, 2978, 2979, 2980, 2981, 2982, 2983, 2984
 2985, 2986
*Elset, elset=_PickedSet7, internal, instance=Part-1-1, generate
 769,  832,    1
*Nset, nset=_PickedSet8, internal, instance=Part-1-1
  212,  213,  214,  215,  216,  217,  218,  219, 1274, 1275, 1276, 1277, 1278, 1279, 1280, 1281
 1282, 1283, 1284, 1285, 1286, 1287, 1288, 1289, 1290, 1291, 1292, 1293, 1294, 1295, 1296, 1297
 1298, 1299, 1300, 1301, 1302, 1303, 1304, 1305, 1306, 1307, 1308, 1309, 1310, 1311, 1312, 1313
 1314, 1315, 1316, 1317, 1318, 1319, 1320, 1321, 1322, 1323, 1324, 1325, 1326, 1327, 1328, 1329
 2987, 2988, 2989, 2990, 2991, 2992, 2993, 2994, 2995, 2996, 2997, 2998, 2999, 3000, 3001, 3002
 3003, 3004, 3005, 3006, 3007, 3008, 3009, 3010, 3011, 3012, 3013, 3014, 3015, 3016, 3017, 3018
 3019, 3020, 3021, 3022, 3023, 3024, 3025, 3026, 3027, 3028, 3029, 3030, 3031, 3032, 3033, 3034
 3035, 3036, 3037, 3038, 3039, 3040, 3041, 3042, 3043, 3044, 3045, 3046, 3047, 3048, 3049, 3050
 3051, 3052, 3053, 3054, 3055, 3056, 3057, 3058, 3059, 3060, 3061, 3062, 3063, 3064, 3065, 3066
 3067, 3068, 3069, 3070, 3071, 3072, 3073, 3074, 3075, 3076, 3077, 3078, 3079, 3080, 3081, 3082
 3083, 3084
*Elset, elset=_PickedSet8, internal, instance=Part-1-1, generate
 833,  896,    1
*Nset, nset=_PickedSet9, internal, instance=Part-1-1
  220,  221,  222,  223,  224,  225,  226,  227, 1330, 1331, 1332, 1333, 1334, 1335, 1336, 1337
 1338, 1339, 1340, 1341, 1342, 1343, 1344, 1345, 1346, 1347, 1348, 1349, 1350, 1351, 1352, 1353
 1354, 1355, 1356, 1357, 1358, 1359, 1360, 1361, 1362, 1363, 1364, 1365, 1366, 1367, 1368, 1369
 1370, 1371, 1372, 1373, 1374, 1375, 1376, 1377, 1378, 1379, 1380, 1381, 1382, 1383, 1384, 1385
 3085, 3086, 3087, 3088, 3089, 3090, 3091, 3092, 3093, 3094, 3095, 3096, 3097, 3098, 3099, 3100
 3101, 3102, 3103, 3104, 3105, 3106, 3107, 3108, 3109, 3110, 3111, 3112, 3113, 3114, 3115, 3116
 3117, 3118, 3119, 3120, 3121, 3122, 3123, 3124, 3125, 3126, 3127, 3128, 3129, 3130, 3131, 3132
 3133, 3134, 3135, 3136, 3137, 3138, 3139, 3140, 3141, 3142, 3143, 3144, 3145, 3146, 3147, 3148
 3149, 3150, 3151, 3152, 3153, 3154, 3155, 3156, 3157, 3158, 3159, 3160, 3161, 3162, 3163, 3164
 3165, 3166, 3167, 3168, 3169, 3170, 3171, 3172, 3173, 3174, 3175, 3176, 3177, 3178, 3179, 3180
 3181, 3182
*Elset, elset=_PickedSet9, internal, instance=Part-1-1, generate
 897,  960,    1
*Nset, nset=_PickedSet10, internal, instance=Part-1-1
  228,  229,  230,  231,  232,  233,  234,  235, 1386, 1387, 1388, 1389, 1390, 1391, 1392, 1393
 1394, 1395, 1396, 1397, 1398, 1399, 1400, 1401, 1402, 1403, 1404, 1405, 1406, 1407, 1408, 1409
 1410, 1411, 1412, 1413, 1414, 1415, 1416, 1417, 1418, 1419, 1420, 1421, 1422, 1423, 1424, 1425
 1426, 1427, 1428, 1429, 1430, 1431, 1432, 1433, 1434, 1435, 1436, 1437, 1438, 1439, 1440, 1441
 3183, 3184, 3185, 3186, 3187, 3188, 3189, 3190, 3191, 3192, 3193, 3194, 3195, 3196, 3197, 3198
 3199, 3200, 3201, 3202, 3203, 3204, 3205, 3206, 3207, 3208, 3209, 3210, 3211, 3212, 3213, 3214
 3215, 3216, 3217, 3218, 3219, 3220, 3221, 3222, 3223, 3224, 3225, 3226, 3227, 3228, 3229, 3230
 3231, 3232, 3233, 3234, 3235, 3236, 3237, 3238, 3239, 3240, 3241, 3242, 3243, 3244, 3245, 3246
 3247, 3248, 3249, 3250, 3251, 3252, 3253, 3254, 3255, 3256, 3257, 3258, 3259, 3260, 3261, 3262
 3263, 3264, 3265, 3266, 3267, 3268, 3269, 3270, 3271, 3272, 3273, 3274, 3275, 3276, 3277, 3278
 3279, 3280
*Elset, elset=_PickedSet10, internal, instance=Part-1-1, generate
  961,  1024,     1
*Nset, nset=_PickedSet11, internal, instance=Part-1-1
  129,  130,  141,  142,  236,  237,  238,  239,  737,  738,  739,  740,  741,  742,  743,  789
  790,  791,  792,  793,  794,  795,  989,  990,  991,  992,  993,  994,  995, 1463, 1464, 1465
 1466, 1467, 1468, 1469, 1470, 1471, 1472, 1473, 1474, 1475, 1476, 1477, 1478, 1479, 1480, 1481
 1482, 1483, 1484, 1485, 1486, 1487, 1488, 1489, 1490, 1491, 1492, 1493, 1494, 1495, 1496, 1497
 3295, 3296, 3297, 3298, 3299, 3300, 3301, 3302, 3303, 3304, 3305, 3306, 3307, 3308, 3309, 3310
 3311, 3312, 3313, 3314, 3315, 3316, 3317, 3318, 3319, 3320, 3321, 3322, 3323, 3324, 3325, 3326
 3327, 3328, 3329, 3330, 3331, 3332, 3333, 3334, 3335, 3336, 3337, 3338, 3339, 3340, 3341, 3342
 3343, 3344, 3345, 3346, 3347, 3348, 3349, 3350, 3351, 3352, 3353, 3354, 3355, 3356, 3357, 3358
 3359, 3360, 3361, 3362, 3363, 3364, 3365, 3366, 3367, 3368, 3369, 3370, 3371, 3372, 3373, 3374
 3375, 3376, 3377, 3378, 3379, 3380, 3381, 3382, 3383, 3384, 3385, 3386, 3387, 3388, 3389, 3390
 3391, 3392
*Elset, elset=_PickedSet11, internal, instance=Part-1-1, generate
 1041,  1104,     1
*Nset, nset=_PickedSet12, internal, instance=Part-1-1
  139,  140,  145,  146,  200,  201,  202,  203,  782,  783,  784,  785,  786,  787,  788,  805
  806,  807,  808,  809,  810,  811,  975,  976,  977,  978,  979,  980,  981, 1183, 1184, 1185
 1186, 1187, 1188, 1189, 1190, 1191, 1192, 1193, 1194, 1195, 1196, 1197, 1198, 1199, 1200, 1201
 1202, 1203, 1204, 1205, 1206, 1207, 1208, 1209, 1210, 1211, 1212, 1213, 1214, 1215, 1216, 1217
 2791, 2792, 2793, 2794, 2795, 2796, 2797, 2798, 2799, 2800, 2801, 2802, 2803, 2804, 2805, 2806
 2807, 2808, 2809, 2810, 2811, 2812, 2813, 2814, 2815, 2816, 2817, 2818, 2819, 2820, 2821, 2822
 2823, 2824, 2825, 2826, 2827, 2828, 2829, 2830, 2831, 2832, 2833, 2834, 2835, 2836, 2837, 2838
 2839, 2840, 2841, 2842, 2843, 2844, 2845, 2846, 2847, 2848, 2849, 2850, 2851, 2852, 2853, 2854
 2855, 2856, 2857, 2858, 2859, 2860, 2861, 2862, 2863, 2864, 2865, 2866, 2867, 2868, 2869, 2870
 2871, 2872, 2873, 2874, 2875, 2876, 2877, 2878, 2879, 2880, 2881, 2882, 2883, 2884, 2885, 2886
 2887, 2888
*Elset, elset=_PickedSet12, internal, instance=Part-1-1, generate
 705,  768,    1
*Nset, nset=_PickedSet13, internal, instance=Part-1-1
  129,  130,  131,  132,  133,  134,  136,  137,  139,  140,  141,  142,  145,  146,  148,  149
  151,  154,  155,  156,  157,  158,  159,  160,  161,  162,  163,  164,  165,  166,  167,  170
  171,  172,  174,  175,  176,  177,  179,  182,  184,  185,  186,  187,  196,  197,  198,  199
  200,  201,  202,  203,  204,  205,  206,  207,  208,  209,  210,  211,  212,  213,  214,  215
  216,  217,  218,  219,  220,  221,  222,  223,  224,  225,  226,  227,  228,  229,  230,  231
  232,  233,  234,  235,  236,  237,  238,  239,  240,  242,  243,  244,  245,  246,  247,  248
  257,  258,  259,  260,  261,  262,  263,  264,  737,  738,  739,  740,  741,  742,  743,  744
  745,  746,  747,  748,  749,  750,  751,  752,  755,  756,  757,  758,  759,  760,  761,  772
  773,  774,  775,  776,  777,  778,  782,  783,  784,  785,  786,  787,  788,  789,  790,  791
  792,  793,  794,  795,  796,  797,  805,  806,  807,  808,  809,  810,  811,  819,  820,  821
  822,  823,  824,  825,  826,  828,  843,  844,  845,  846,  847,  848,  849,  851,  852,  853
  854,  855,  856,  857,  859,  860,  861,  862,  863,  864,  865,  866,  867,  868,  869,  870
  871,  872,  873,  874,  875,  876,  877,  878,  879,  880,  881,  882,  883,  884,  885,  886
  887,  888,  889,  890,  891,  892,  894,  896,  897,  898,  899,  900,  901,  902,  903,  904
  905,  906,  907,  908,  909,  910,  911,  912,  913,  914,  915,  916,  917,  918,  919,  920
  921,  922,  923,  924,  925,  926,  927,  928,  929,  930,  931,  932,  975,  976,  977,  978
  979,  980,  981,  989,  990,  991,  992,  993,  994,  995,  996,  997,  998,  999, 1000, 1001
 1002, 1003, 1004, 1005, 1006, 1007, 1008, 1009, 1010, 1011, 1012, 1013, 1014, 1015, 1016, 1039
 1040, 1041, 1042, 1044, 1052, 1053, 1054, 1055, 1056, 1057, 1058, 1066, 1067, 1068, 1069, 1070
 1071, 1072, 1093, 1094, 1095, 1096, 1097, 1098, 1099, 1100, 1101, 1102, 1103, 1104, 1105, 1106
** ... 76 like lines cut
*Elset, elset=_PickedSet13, internal, instance=Part-1-1
  369,  370,  371,  372,  373,  374,  375,  376,  377,  378,  379,  380,  381,  382,  383,  384
  385,  386,  387,  388,  389,  390,  391,  392,  393,  394,  395,  396,  397,  398,  399,  400
  401,  402,  403,  404,  405,  406,  407,  408,  409,  410,  411,  412,  413,  414,  415,  416
  417,  418,  419,  420,  421,  422,  423,  424,  425,  426,  427,  428,  429,  430,  431,  432
  433,  434,  435,  436,  437,  438,  439,  440,  441,  442,  443,  444,  445,  446,  447,  448
  449,  450,  451,  452,  453,  454,  455,  456,  457,  458,  459,  460,  461,  462,  463,  464
  465,  466,  467,  468,  469,  470,  471,  472,  473,  474,  475,  476,  477,  478,  479,  480
  481,  482,  483,  484,  485,  486,  487,  488,  489,  490,  491,  492,  493,  494,  495,  496
  497,  498,  499,  500,  501,  502,  503,  504,  505,  506,  507,  508,  509,  510,  511,  512
  513,  514,  515,  516,  517,  518,  519,  520,  521,  522,  523,  524,  525,  526,  527,  528
  529,  530,  531,  532,  533,  534,  535,  536,  537,  538,  539,  540,  541,  542,  543,  544
  545,  546,  547,  548,  549,  550,  551,  552,  553,  554,  555,  556,  557,  558,  559,  560
  561,  562,  563,  564,  565,  566,  567,  568,  569,  570,  571,  572,  573,  574,  575,  576
  577,  578,  579,  580,  581,  582,  583,  584,  585,  586,  587,  588,  589,  590,  591,  592
  593,  594,  595,  596,  597,  598,  599,  600,  601,  602,  603,  604,  605,  606,  607,  608
  609,  610,  611,  612,  613,  614,  615,  616,  617,  618,  619,  620,  621,  622,  623,  624
  641,  642,  643,  644,  645,  646,  647,  648,  649,  656,  657,  664,  665,  672,  673,  680
  681,  688,  689,  696,  697,  698,  699,  700,  701,  702,  703,  704,  705,  706,  707,  708
  709,  710,  711,  712,  720,  728,  736,  744,  752,  760,  761,  762,  763,  764,  765,  766
  767,  768,  769,  770,  771,  772,  773,  774,  775,  776,  777,  784,  785,  792,  793,  800
** ... 65 like lines cut
*Nset, nset=_PickedSet22, internal, instance=Part-1-1
    1,    6,    7,    8,   13,   14,   15,   18,   23,   24,   30,   31,   32,   36,   37,   42
   43,   44,   54,   57,   58,   59,   60,   61,   62,   67,   68,   70,   87,   88,  103,  104
  105,  106,  111,  112,  249,  250,  251,  252,  253,  254,  255,  256,  288,  289,  290,  291
  302,  303,  304,  305,  306,  307,  308,  309,  310,  311,  312,  313,  314,  315,  335,  336
  337,  338,  339,  340,  341,  363,  364,  365,  366,  374,  375,  376,  377,  378,  379,  380
  381,  382,  393,  394,  395,  396,  413,  414,  415,  416,  417,  437,  438,  439,  440,  441
  442,  443,  469,  470,  471,  472,  473,  474,  475,  476,  477,  478,  479,  480,  558,  559
  560,  561,  562,  563,  564,  665,  666,  667, 1587, 1588, 1589, 1590, 1591, 1592, 1593, 1594
 1595, 1596, 1597, 1598, 1599, 1600, 1601, 1602, 1603, 1604, 1605, 1606, 1607, 1608, 1609, 1610
 1611, 1612, 1613, 1614, 1615, 1616, 1617, 1618, 1619, 1620, 1621, 1622, 1623, 1624, 1625, 1626
 1627, 1628, 1629, 1630, 1631, 1632, 1633, 1634, 1635, 1636, 1637, 1638, 1639, 1640, 1641, 1642
 1643, 1644, 1645, 1646, 1647, 1648, 1649, 1650, 1651, 1652, 1653, 1654, 1655, 1656, 1657, 1658
*Elset, elset=_PickedSet22, internal, instance=Part-1-1
    1,    2,    3,    4,    5,    6,   12,   13,   14,   15,   16,   17,   39,   40,   41,   42
   43,   44,   49,   50,   51,   52,   53,   54,   56,   57,   58,   59,   60,   61,   96,   97
   98,   99,  100,  101,  111,  116,  117,  122,  123,  128,  129,  134,  135,  140,  141,  146
  165,  166,  167,  168,  169,  170,  243,  250,  251,  252,  253,  254,  255,  256,  257,  262
  263,  268,  269,  274,  280,  286,  305,  306,  307,  308,  309,  310,  311,  312,  313,  314
 1217, 1218, 1219, 1220, 1221, 1222, 1223, 1224, 1225, 1226, 1227, 1228, 1229, 1230, 1231, 1232
 1233, 1234, 1235, 1236, 1237, 1238, 1239, 1240, 1241, 1242, 1243, 1244, 1245, 1246, 1247, 1248
 1249, 1250, 1251, 1252, 1253, 1254, 1255, 1256, 1257, 1258, 1259, 1260, 1261, 1262, 1263, 1264
 1265, 1266, 1267, 1268, 1269, 1270, 1271, 1272, 1273, 1274, 1275, 1276, 1277, 1278, 1279, 1280
 1281, 1282, 1283, 1284, 1285, 1286, 1287, 1288
*Nset, nset=_PickedSet23, internal, instance=Part-1-1
    1,    6,    7,    8,   15,   30,   31,   32,   83,   84,   85,   86,  288,  289,  290,  291
  292,  293,  294,  311,  312,  313,  314,  315,  360,  361,  362,  363,  364,  365,  366,  525
  526,  527,  528,  529,  530,  531,  532,  533,  534,  535,  536,  537,  538,  539,  540,  541
  542,  543,  544,  545,  546,  547,  548,  549,  550,  551,  552,  553,  554,  555,  556,  557
 2195, 2196, 2197, 2198, 2199, 2200, 2201, 2202, 2203, 2204, 2205, 2206, 2207, 2208, 2209, 2210
 2211, 2212, 2213, 2214, 2215, 2216, 2217, 2218, 2219, 2220, 2221, 2222, 2223, 2224, 2225, 2226
 2227, 2228, 2229, 2230, 2231, 2232, 2233, 2234, 2235, 2236, 2237, 2238, 2239, 2240, 2241, 2242
 2243, 2244, 2245, 2246, 2247, 2248, 2249, 2250, 2251, 2252, 2253, 2254, 2255, 2256, 2257, 2258
 2259, 2260, 2261, 2262, 2263, 2264, 2265, 2266, 2267, 2268, 2269, 2270, 2271, 2272, 2273, 2274
 2275, 2276, 2277, 2278, 2279, 2280, 2281, 2282, 2283, 2284
*Elset, elset=_PickedSet23, internal, instance=Part-1-1, generate
 111,  170,    1
*Nset, nset=_PickedSet27, internal, instance=Part-1-1
   37,   42,   43,   44,   54,   70,  107,  108,  109,  110,  111,  112,  390,  391,  392,  393
  394,  395,  396,  413,  414,  415,  416,  417,  476,  477,  478,  479,  480,  637,  638,  639
  640,  641,  642,  643,  644,  645,  646,  647,  648,  649,  650,  651,  652,  653,  654,  655
  656,  657,  658,  659,  660,  661,  662,  663,  664,  665,  666,  667,  668,  669,  670,  671
 2339, 2340, 2341, 2342, 2343, 2344, 2345, 2346, 2347, 2348, 2349, 2350, 2351, 2352, 2353, 2354
 2355, 2356, 2357, 2358, 2359, 2360, 2361, 2362, 2363, 2364, 2365, 2366, 2367, 2368, 2369, 2370
 2371, 2372, 2373, 2374, 2375, 2376, 2377, 2378, 2379, 2380, 2381, 2382, 2383, 2384, 2385, 2386
 2387, 2388, 2389, 2390, 2391, 2392, 2393, 2394, 2395, 2396, 2397, 2398, 2399, 2400, 2401, 2402
 2403, 2404, 2405, 2406, 2407, 2408, 2409, 2410, 2411, 2412, 2413, 2414, 2415, 2416, 2417, 2418
 2419, 2420, 2421, 2422, 2423, 2424, 2425, 2426, 2427, 2428
*Elset, elset=_PickedSet27, internal, instance=Part-1-1, generate
 251,  310,    1
*Nset, nset=_PickedSet33, internal, instance=Part-2-1
  122,  123,  124,  125,  126,  127,  128,  129,  130,  131,  132,  133,  134,  135,  136,  137
  138,  139,  140,  141,  142,  143,  144,  145,  146,  147,  148,  149,  150,  151,  152,  153
  154,  155,  156,  157,  158,  159,  160,  161,  162,  163,  164,  165,  166,  167,  168,  169
  170,  171,  172,  173,  174,  175,  176,  177,  178,  179,  180,  181,  182,  183,  184,  185
  186,  187,  188,  189,  190,  191,  192,  193,  194,  195,  196,  197,  198,  199,  200,  201
  202,  203,  204,  205,  206,  207,  208,  209,  210,  211,  212,  213,  214,  215,  216,  217
  218,  219,  220,  221,  222,  223,  224,  225,  226,  227,  228,  229,  230,  231,  232,  233
  234,  235,  236,  237,  238,  239,  240,  241,  242,  364,  365,  366,  367,  368,  369,  370
  371,  372,  373,  374,  375,  376,  377,  378,  379,  380,  381,  382,  383,  384,  385,  386
  387,  388,  389,  390,  391,  392,  393,  394,  395,  396,  397,  398,  399,  400,  401,  402
  403,  404,  405,  406,  407,  408,  409,  410,  411,  412,  413,  414,  415,  416,  417,  418
  419,  420,  421,  422,  423,  424,  425,  426,  427,  428,  429,  430,  431,  432,  433,  434
  435,  436,  437,  438,  439,  440,  441,  442,  443,  444,  445,  446,  447,  448,  449,  450
  451,  452,  453,  454,  455,  456,  457,  458,  459,  460,  461,  462,  463,  464,  465,  466
  467,  468,  469,  470,  471,  472,  473,  474,  475,  476,  477,  478,  479,  480,  481,  482
  483,  484,  606,  607,  608,  609,  610,  611,  612,  613,  614,  615,  616,  617,  618,  619
  620,  621,  622,  623,  624,  625,  626,  627,  628,  629,  630,  631,  632,  633,  634,  635
  636,  637,  638,  639,  640,  641,  642,  643,  644,  645,  646,  647,  648,  649,  650,  651
  652,  653,  654,  655,  656,  657,  658,  659,  660,  661,  662,  663,  664,  665,  666,  667
  668,  669,  670,  671,  672,  673,  674,  675,  676,  677,  678,  679,  680,  681,  682,  683
** ... 170 like lines cut
*Elset, elset=_PickedSet33, internal, instance=Part-2-1, generate
    1,  2880,     1
*Nset, nset=Set-1, instance=Part-1-1
 1878, 1879, 1880, 1920, 1921, 1922, 3949, 3950, 3951
*Elset, elset=_frame-fff_S5, internal, instance=Part-1-1, generate
 103,  110,    1
*Elset, elset=_frame-fff_S2, internal, instance=Part-1-1, generate
 625,  640,    1
*Elset, elset=_frame-fff_S3, internal, instance=Part-1-1, generate
 243,  250,    1
*Surface, type=ELEMENT, name=frame-fff
_frame-fff_S5, S5
_frame-fff_S2, S2
_frame-fff_S3, S3
*Elset, elset=_rr_S3, internal, instance=Part-2-1, generate
    1,  2880,     1
*Surface, type=ELEMENT, name=rr
_rr_S3, S3
*Elset, elset=_rubber-ff_S2, internal, instance=Part-1-1
 111, 112, 113, 114, 115, 116, 117, 118, 119, 120, 121, 122, 123, 124, 125, 126
 127, 128, 129, 130, 131, 132, 133, 134, 135, 136, 137, 138, 139, 140, 141, 142
 143, 144, 145, 146, 147, 148, 149, 150, 151, 152, 153, 154, 155, 156, 157, 158
 159, 160, 161, 162, 163, 164, 165, 166, 167, 168, 169, 170, 251, 252, 253, 254
 255, 256, 257, 258, 259, 260, 261, 262, 263, 264, 265, 266, 267, 268, 269, 270
 271, 272, 273, 274, 275, 276, 277, 278, 279, 280, 281, 282, 283, 284, 285, 286
 287, 288, 289, 290, 291, 292, 293, 294, 295, 296, 297, 298, 299, 300, 301, 302
 303, 304, 305, 306, 307, 308, 309, 310
*Surface, type=ELEMENT, name=rubber-ff
_rubber-ff_S2, S2
*End Assembly
** 
** MATERIALS
** 
*Material, name=ABS
*Density
1120.,
*Elastic
 2.3e+09, 0.394
*Material, name=DE-umat-b
*Density
960.,
*User Material, constants=9
22500.,   8.8e-08, 3.717e-11,        0.,        0.,        1.,        1.,      1.15
  0.869565,
*Material, name=DE-umat-f
*Density
960.,
*User Material, constants=9
22500.,   8.8e-08, 3.717e-11,        0.,        0.,        1.,        1.,       1.3
  0.769231,
*Material, name=DE-umat-ff
*Density
960.,
*User Material, constants=9
22500.,   8.8e-08, 3.717e-11,        0.,        0.,        1.,        1.,        1.
        1.,
*Material, name=rr
*Density
1.,
*Elastic
 2.1e+12, 0.2
** 
** INTERACTION PROPERTIES
** 
*Surface Interaction, name=e
1.,
*Friction, slip tolerance=0.005
 0.7,
*Surface Behavior, pressure-overclosure=HARD
*Surface Interaction, name=zero
1.,
*Friction, slip tolerance=0.005
 0.2,
*Surface Behavior, pressure-overclosure=HARD
** 
** BOUNDARY CONDITIONS
** 
** Name: BC-1 Type: Displacement/Rotation
*Boundary
Set-1, 1, 1
Set-1, 2, 2
Set-1, 3, 3
** Name: BC-2 Type: Displacement/Rotation
*Boundary
_PickedSet33, 1, 1
_PickedSet33, 2, 2
_PickedSet33, 3, 3
** 
** PREDEFINED FIELDS
** 
** Name: Predefined Field-9   Type: Temperature
*Initial Conditions, type=TEMPERATURE
_PickedSet13, 0.
** Name: bi1   Type: Temperature
*Initial Conditions, type=TEMPERATURE
_PickedSet7, 0.
** Name: bi2   Type: Temperature
*Initial Conditions, type=TEMPERATURE
_PickedSet8, 0.
** Name: bj1   Type: Temperature
*Initial Conditions, type=TEMPERATURE
_PickedSet10, 0.
** Name: bj2   Type: Temperature
*Initial Conditions, type=TEMPERATURE
_PickedSet9, 0.
** Name: ff-frame   Type: Temperature
*Initial Conditions, type=TEMPERATURE
_PickedSet22, 0.
** Name: ff-i1   Type: Temperature
*Initial Conditions, type=TEMPERATURE
_PickedSet23, 0.
** Name: ff-j1   Type: Temperature
*Initial Conditions, type=TEMPERATURE
_PickedSet27, 0.
** Name: fi1   Type: Temperature
*Initial Conditions, type=TEMPERATURE
_PickedSet5, 0.
** Name: fi2   Type: Temperature
*Initial Conditions, type=TEMPERATURE
_PickedSet6, 0.
** Name: fj1   Type: Temperature
*Initial Conditions, type=TEMPERATURE
_PickedSet12, 0.
** Name: fj2   Type: Temperature
*Initial Conditions, type=TEMPERATURE
_PickedSet11, 0.
** 
** INTERACTIONS
** 
** Interaction: Int-1
*Contact Pair, interaction=zero, type=SURFACE TO SURFACE
frame-fff, rr
** Interaction: Int-2
*Contact Pair, interaction=e, type=SURFACE TO SURFACE
rubber-ff, rr
** ----------------------------------------------------------------
** 
** STEP: shrink
** 
*Step, name=shrink, nlgeom=YES, inc=100000
*Static
0.001, 1., 1e-05, 0.03
** 
** LOADS
** 
** Name: Load-1   Type: Gravity
*Dload
, GRAV, 0.3, 0., 0., -1.
** 
** INTERACTIONS
** 
** Interaction: Int-1
*Model Change, type=CONTACT PAIR, remove
frame-fff, rr
** Interaction: Int-2
*Model Change, type=CONTACT PAIR, remove
rubber-ff, rr
** 
** OUTPUT REQUESTS
** 
*Restart, write, overlay, frequency=1
** 
** FIELD OUTPUT: F-Output-1
** 
*Output, field, variable=PRESELECT
** 
** HISTORY OUTPUT: H-Output-1
** 
*Output, history, variable=PRESELECT
*End Step
** ----------------------------------------------------------------
** 
** STEP: move-down
** 
*Step, name=move-down, nlgeom=YES, inc=100000
*Dynamic,application=QUASI-STATIC,initial=NO
0.001,1.,1e-05,0.03
** 
** BOUNDARY CONDITIONS
** 
** Name: BC-1 Type: Displacement/Rotation
*Boundary, op=NEW
Set-1, 1, 1
** Name: BC-2 Type: Displacement/Rotation
*Boundary, op=NEW
_PickedSet33, 1, 1
_PickedSet33, 2, 2
_PickedSet33, 3, 3
** 
** INTERACTIONS
** 
** Interaction: Int-1
*Model Change, type=CONTACT PAIR, add
frame-fff, rr
** 
** OUTPUT REQUESTS
** 
*Restart, write, overlay, frequency=1
** 
** FIELD OUTPUT: F-Output-1
** 
*Output, field, variable=PRESELECT, frequency=1
** 
** HISTORY OUTPUT: H-Output-1
** 
*Output, history, variable=PRESELECT, frequency=1
*End Step
** ----------------------------------------------------------------
** 
** STEP: rest
** 
*Step, name=rest, nlgeom=YES, inc=100000
*Static
0.001, 1., 1e-05, 0.03
** 
** OUTPUT REQUESTS
** 
*Restart, write, overlay, frequency=1
** 
** FIELD OUTPUT: F-Output-1
** 
*Output, field, variable=PRESELECT
** 
** HISTORY OUTPUT: H-Output-1
** 
*Output, history, variable=PRESELECT
*End Step
** ----------------------------------------------------------------
** 
** STEP: ff-i1
** 
*Step, name=ff-i1, nlgeom=YES, inc=100000
*Static
0.001, 1., 1e-05, 0.03
** 
** PREDEFINED FIELDS
** 
** Name: ff-i1   Type: Temperature
*Temperature
_PickedSet23, 1.6e+07
** 
** INTERACTIONS
** 
** Interaction: Int-2
*Model Change, type=CONTACT PAIR, add
rubber-ff, rr
** 
** OUTPUT REQUESTS
** 
*Restart, write, overlay, frequency=1
** 
** FIELD OUTPUT: F-Output-1
** 
*Output, field, variable=PRESELECT
** 
** HISTORY OUTPUT: H-Output-1
** 
*Output, history, variable=PRESELECT
*End Step
** ----------------------------------------------------------------
** 
** STEP: f-i2
** 
*Step, name=f-i2, nlgeom=YES, inc=100000
*Static
0.001, 1., 1e-05, 0.03
** 
** PREDEFINED FIELDS
** 
** Name: fi2   Type: Temperature
*Temperature
_PickedSet6, 1.6e+07
** 
** OUTPUT REQUESTS
** 
*Restart, write, overlay, frequency=1
** 
** FIELD OUTPUT: F-Output-1
** 
*Output, field, variable=PRESELECT
** 
** HISTORY OUTPUT: H-Output-1
** 
*Output, history, variable=PRESELECT
*End Step
** ----------------------------------------------------------------
** 
** STEP: b-i1
** 
*Step, name=b-i1, nlgeom=YES, inc=100000
*Static
0.001, 1., 1e-05, 0.03
** 
** PREDEFINED FIELDS
** 
** Name: bi1   Type: Temperature
*Temperature
_PickedSet7, 2e+07
** 
** OUTPUT REQUESTS
** 
*Restart, write, overlay, frequency=1
** 
** FIELD OUTPUT: F-Output-1
** 
*Output, field, variable=PRESELECT
** 
** HISTORY OUTPUT: H-Output-1
** 
*Output, history, variable=PRESELECT
*End Step
** ----------------------------------------------------------------
** 
** STEP: ff-j1
** 
*Step, name=ff-j1, nlgeom=YES, inc=100000
*Static
0.001, 1., 1e-05, 0.03
** 
** PREDEFINED FIELDS
** 
** Name: ff-j1   Type: Temperature
*Temperature
_PickedSet27, 1.6e+07
** 
** OUTPUT REQUESTS
** 
*Restart, write, overlay, frequency=1
** 
** FIELD OUTPUT: F-Output-1
** 
*Output, field, variable=PRESELECT
** 
** HISTORY OUTPUT: H-Output-1
** 
*Output, history, variable=PRESELECT
*End Step
** ----------------------------------------------------------------
** 
** STEP: de-ff-i1
** 
*Step, name=de-ff-i1, nlgeom=YES, inc=100000
*Static
0.001, 1., 1e-05, 0.03
** 
** PREDEFINED FIELDS
** 
** Name: ff-i1   Type: Temperature
*Temperature
_PickedSet23, 0.
** 
** OUTPUT REQUESTS
** 
*Restart, write, overlay, frequency=1
** 
** FIELD OUTPUT: F-Output-1
** 
*Output, field, variable=PRESELECT
** 
** HISTORY OUTPUT: H-Output-1
** 
*Output, history, variable=PRESELECT
*End Step
** ----------------------------------------------------------------
** 
** STEP: de-b-i1
** 
*Step, name=de-b-i1, nlgeom=YES, inc=100000
*Static
0.001, 1., 1e-05, 0.03
** 
** PREDEFINED FIELDS
** 
** Name: bi1   Type: Temperature
*Temperature
_PickedSet7, 0.
** 
** OUTPUT REQUESTS
** 
*Restart, write, overlay, frequency=1
** 
** FIELD OUTPUT: F-Output-1
** 
*Output, field, variable=PRESELECT
** 
** HISTORY OUTPUT: H-Output-1
** 
*Output, history, variable=PRESELECT
*End Step
** ----------------------------------------------------------------
** 
** STEP: de-f-i2
** 
*Step, name=de-f-i2, nlgeom=YES, inc=100000
*Static
0.001, 1., 1e-05, 0.03
** 
** PREDEFINED FIELDS
** 
** Name: fi2   Type: Temperature
*Temperature
_PickedSet6, 0.
** 
** OUTPUT REQUESTS
** 
*Restart, write, overlay, frequency=1
** 
** FIELD OUTPUT: F-Output-1
** 
*Output, field, variable=PRESELECT
** 
** HISTORY OUTPUT: H-Output-1
** 
*Output, history, variable=PRESELECT
*End Step
** ----------------------------------------------------------------
** 
** STEP: de-ff-j1
** 
*Step, name=de-ff-j1, nlgeom=YES, inc=100000
*Static
0.001, 1., 1e-05, 0.03
** 
** PREDEFINED FIELDS
** 
** Name: ff-j1   Type: Temperature
*Temperature
_PickedSet27, 0.
** 
** OUTPUT REQUESTS
** 
*Restart, write, overlay, frequency=1
** 
** FIELD OUTPUT: F-Output-1
** 
*Output, field, variable=PRESELECT
** 
** HISTORY OUTPUT: H-Output-1
** 
*Output, history, variable=PRESELECT
*End Step
** ----------------------------------------------------------------
** 
** STEP: ff-i1-2
** 
*Step, name=ff-i1-2, nlgeom=YES, inc=100000
*Static
0.001, 1., 1e-05, 0.03
** 
** PREDEFINED FIELDS
** 
** Name: ff-i1   Type: Temperature
*Temperature
_PickedSet23, 1.6e+07
** 
** OUTPUT REQUESTS
** 
*Restart, write, overlay, frequency=1
** 
** FIELD OUTPUT: F-Output-1
** 
*Output, field, variable=PRESELECT
** 
** HISTORY OUTPUT: H-Output-1
** 
*Output, history, variable=PRESELECT
*End Step
** ----------------------------------------------------------------
** 
** STEP: f-i2-2
** 
*Step, name=f-i2-2, nlgeom=YES, inc=100000
*Static
0.001, 1., 1e-05, 0.03
** 
** PREDEFINED FIELDS
** 
** Name: fi2   Type: Temperature
*Temperature
_PickedSet6, 1.6e+07
** 
** OUTPUT REQUESTS
** 
*Restart, write, overlay, frequency=1
** 
** FIELD OUTPUT: F-Output-1
** 
*Output, field, variable=PRESELECT
** 
** HISTORY OUTPUT: H-Output-1
** 
*Output, history, variable=PRESELECT
*End Step
** ----------------------------------------------------------------
** 
** STEP: b-i1-2
** 
*Step, name=b-i1-2, nlgeom=YES, inc=100000
*Static
0.001, 1., 1e-05, 0.03
** 
** PREDEFINED FIELDS
** 
** Name: bi1   Type: Temperature
*Temperature
_PickedSet7, 2e+07
** 
** OUTPUT REQUESTS
** 
*Restart, write, overlay, frequency=1
** 
** FIELD OUTPUT: F-Output-1
** 
*Output, field, variable=PRESELECT
** 
** HISTORY OUTPUT: H-Output-1
** 
*Output, history, variable=PRESELECT
*End Step
** ----------------------------------------------------------------
** 
** STEP: ff-j1-2
** 
*Step, name=ff-j1-2, nlgeom=YES, inc=100000
*Static
0.001, 1., 1e-05, 0.03
** 
** PREDEFINED FIELDS
** 
** Name: ff-j1   Type: Temperature
*Temperature
_PickedSet27, 1.6e+07
** 
** OUTPUT REQUESTS
** 
*Restart, write, overlay, frequency=1
** 
** FIELD OUTPUT: F-Output-1
** 
*Output, field, variable=PRESELECT
** 
** HISTORY OUTPUT: H-Output-1
** 
*Output, history, variable=PRESELECT
*End Step
** ----------------------------------------------------------------
** 
** STEP: de-ff-i1-2
** 
*Step, name=de-ff-i1-2, nlgeom=YES, inc=100000
*Static
0.001, 1., 1e-05, 0.03
** 
** PREDEFINED FIELDS
** 
** Name: ff-i1   Type: Temperature
*Temperature
_PickedSet23, 0.
** 
** OUTPUT REQUESTS
** 
*Restart, write, overlay, frequency=1
** 
** FIELD OUTPUT: F-Output-1
** 
*Output, field, variable=PRESELECT
** 
** HISTORY OUTPUT: H-Output-1
** 
*Output, history, variable=PRESELECT
*End Step
** ----------------------------------------------------------------
** 
** STEP: de-b-i1-2
** 
*Step, name=de-b-i1-2, nlgeom=YES, inc=100000
*Static
0.001, 1., 1e-05, 0.03
** 
** PREDEFINED FIELDS
** 
** Name: bi1   Type: Temperature
*Temperature
_PickedSet7, 0.
** 
** OUTPUT REQUESTS
** 
*Restart, write, overlay, frequency=1
** 
** FIELD OUTPUT: F-Output-1
** 
*Output, field, variable=PRESELECT
** 
** HISTORY OUTPUT: H-Output-1
** 
*Output, history, variable=PRESELECT
*End Step
** ----------------------------------------------------------------
** 
** STEP: de-f-i2-2
** 
*Step, name=de-f-i2-2, nlgeom=YES, inc=100000
*Static
0.001, 1., 1e-05, 0.03
** 
** PREDEFINED FIELDS
** 
** Name: fi2   Type: Temperature
*Temperature
_PickedSet6, 0.
** 
** OUTPUT REQUESTS
** 
*Restart, write, overlay, frequency=1
** 
** FIELD OUTPUT: F-Output-1
** 
*Output, field, variable=PRESELECT
** 
** HISTORY OUTPUT: H-Output-1
** 
*Output, history, variable=PRESELECT
*End Step
** ----------------------------------------------------------------
** 
** STEP: de-ff-j1-2
** 
*Step, name=de-ff-j1-2, nlgeom=YES, inc=100000
*Static
0.001, 1., 1e-05, 0.03
** 
** PREDEFINED FIELDS
** 
** Name: ff-j1   Type: Temperature
*Temperature
_PickedSet27, 0.
** 
** OUTPUT REQUESTS
** 
*Restart, write, overlay, frequency=1
** 
** FIELD OUTPUT: F-Output-1
** 
*Output, field, variable=PRESELECT
** 
** HISTORY OUTPUT: H-Output-1
** 
*Output, history, variable=PRESELECT
*End Step
