*Heading
** Job name: DEWalker Model name: DEWalker
** Generated by: Abaqus/CAE 6.13-1
*Preprint, echo=NO, model=NO, history=NO, contact=NO
**
** PARTS
**
*Part, name=Beam
*End Part
**  
*Part, name=Ground
*End Part
**  
*Part, name=Leg
*End Part
**  
*Part, name=Wheel
*End Part
**  
*Part, name=part1
*End Part
**  
**
** ASSEMBLY
**
*Assembly, name=Assembly
**  
*Instance, name=part1-1, part=part1
*Node
      1, 0.0149999997,  0.104999997,           0.
      2, 0.0149999997,  0.100000001,           0.
      3, 0.00499999989,  0.100000001,           0.
      4, 0.00499999989,  0.104999997,           0.
      5, 0.0149999997,  0.100000001, 0.00100000005
      6, 0.00499999989,  0.100000001, 0.00100000005
      7, 0.00499999989,  0.104999997, 0.00100000005
      8, 0.0149999997,  0.104999997, 0.00100000005
      9, 0.0149999997, 0.0799999982, 0.00100000005
     10, 0.00499999989, 0.0799999982, 0.00100000005
     11, 0.00499999989, 0.0799999982,           0.
     12, 0.0149999997, 0.0799999982,           0.
     13, 0.0149999997, 0.0549999997, 0.00100000005
     14, 0.0149999997,  0.075000003, 0.00100000005
     15, 0.00499999989,  0.075000003, 0.00100000005
     16, 0.00499999989, 0.0549999997, 0.00100000005
     17, 0.0149999997,  0.075000003,           0.
     18, 0.00499999989,  0.075000003,           0.
     19, 0.00499999989, 0.0549999997,           0.
     20, 0.0149999997, 0.0549999997,           0.
** ... 8394 like lines cut
*Element, type=C3D8H
 1,    8,  183, 2361,  197,    1,  154, 2325,  179
 2,  183,  182, 2362, 2361,  154,  155, 2326, 2325
 3,  182,  181, 2363, 2362,  155,  156, 2327, 2326
 4,  181,  180, 2364, 2363,  156,  157, 2328, 2327
 5,  180,    5,  192, 2364,  157,    2,  158, 2328
 6,  197, 2361, 2365,  198,  179, 2325, 2329,  178
 7, 2361, 2362, 2366, 2365, 2325, 2326, 2330, 2329
 8, 2362, 2363, 2367, 2366, 2326, 2327, 2331, 2330
 9, 2363, 2364, 2368, 2367, 2327, 2328, 2332, 2331
10, 2364,  192,  191, 2368, 2328,  158,  159, 2332
11,  198, 2365, 2369,  199,  178, 2329, 2333,  177
12, 2365, 2366, 2370, 2369, 2329, 2330, 2334, 2333
13, 2366, 2367, 2371, 2370, 2330, 2331, 2335, 2334
14, 2367, 2368, 2372, 2371, 2331, 2332, 2336, 2335
15, 2368,  191,  190, 2372, 2332,  159,  160, 2336
16,  199, 2369, 2373,  200,  177, 2333, 2337,  176
17, 2369, 2370, 2374, 2373, 2333, 2334, 2338, 2337
18, 2370, 2371, 2375, 2374, 2334, 2335, 2339, 2338
19, 2371, 2372, 2376, 2375, 2335, 2336, 2340, 2339
20, 2372,  190,  189, 2376, 2336,  160,  161, 2340
** ... 4680 like lines cut
*Nset, nset=_PickedSet12, internal
    1,    2,    3,    4,    5,    6,    7,    8,    9,   10,   11,   12,   13,   14,   15,   16
   17,   18,   19,   20,   21,   22,   23,   24,   25,   26,   27,   28,   29,   30,   31,   32
   33,   34,   35,   36,   37,   38,   40,   44,   45,   46,   47,   48,   49,   52,   53,   56
   57,   58,   59,   60,   61,   62,   63,   64,   75,   78,   79,   83,   86,   87,   88,   89
   90,   91,   92,   94,   95,   98,   99,  100,  101,  102,  103,  104,  105,  108,  109,  110
  111,  117,  121,  122,  123,  124,  125,  130,  131,  132,  133,  134,  137,  138,  139,  142
  143,  145,  146,  148,  149,  153,  154,  155,  156,  157,  158,  159,  160,  161,  162,  163
  164,  165,  166,  167,  168,  169,  170,  171,  172,  173,  174,  175,  176,  177,  178,  179
  180,  181,  182,  183,  184,  185,  186,  187,  188,  189,  190,  191,  192,  193,  194,  195
  196,  197,  198,  199,  200,  201,  202,  203,  204,  205,  225,  226,  227,  228,  229,  230
  231,  232,  233,  234,  235,  236,  237,  238,  239,  240,  241,  242,  243,  244,  245,  246
  247,  248,  249,  250,  251,  252,  272,  273,  274,  275,  276,  277,  278,  279,  280,  281
  282,  283,  284,  285,  286,  287,  288,  289,  290,  291,  292,  293,  294,  295,  296,  297
  298,  299,  319,  320,  321,  322,  323,  324,  325,  326,  327,  328,  329,  330,  331,  332
  333,  334,  335,  336,  337,  338,  339,  340,  341,  342,  343,  344,  345,  346,  347,  348
  349,  350,  351,  352,  353,  354,  355,  375,  376,  377,  378,  379,  380,  381,  382,  383
  384,  385,  386,  387,  388,  389,  390,  391,  392,  393,  394,  395,  396,  397,  398,  399
  400,  401,  402,  403,  404,  405,  406,  407,  408,  409,  410,  411,  431,  432,  433,  434
  435,  436,  437,  438,  439,  440,  441,  442,  443,  444,  445,  446,  447,  448,  449,  450
  451,  452,  453,  454,  455,  456,  457,  458,  459,  460,  461,  462,  463,  464,  465,  466
** ... 211 like lines cut
*Elset, elset=_PickedSet12, internal
    1,    2,    3,    4,    5,    6,    7,    8,    9,   10,   11,   12,   13,   14,   15,   16
   17,   18,   19,   20,   21,   22,   23,   24,   25,   26,   27,   28,   29,   30,   31,   32
   33,   34,   35,   36,   37,   38,   39,   40,   41,   42,   43,   44,   45,   46,   47,   48
   49,   50,  851,  852,  853,  854,  855,  856,  857,  858,  859,  860,  861,  862,  863,  864
  865,  866,  867,  868,  869,  870,  871,  872,  873,  874,  875,  876,  877,  878,  879,  880
  881,  882,  883,  884,  885,  886,  887,  888,  889,  890,  891,  892,  893,  894,  895,  896
  897,  898,  899,  900,  951,  952,  953,  954,  955,  956,  957,  958,  959,  960,  961,  962
  963,  964,  965,  966,  967,  968,  969,  970, 1021, 1022, 1023, 1024, 1025, 1026, 1027, 1028
 1029, 1030, 1031, 1032, 1033, 1034, 1035, 1036, 1037, 1038, 1039, 1040, 1041, 1042, 1043, 1044
 1045, 1046, 1047, 1048, 1049, 1050, 1051, 1052, 1053, 1054, 1055, 1056, 1057, 1058, 1059, 1060
 1061, 1062, 1063, 1064, 1065, 1066, 1067, 1068, 1069, 1070, 1071, 1072, 1073, 1074, 1075, 1076
 1077, 1078, 1079, 1080, 1081, 1082, 1083, 1084, 1085, 1086, 1087, 1088, 1089, 1090, 1091, 1092
 1093, 1094, 1095, 1096, 1097, 1098, 1099, 1100, 1101, 1102, 1103, 1104, 1105, 1106, 1107, 1108
 1109, 1110, 1111, 1112, 1113, 1114, 1115, 1116, 1117, 1118, 1119, 1120, 1271, 1272, 1273, 1274
 1275, 1276, 1277, 1278, 1279, 1280, 1281, 1282, 1283, 1284, 1285, 1286, 1287, 1288, 1289, 1290
 1291, 1292, 1293, 1294, 1295, 1296, 1297, 1298, 1299, 1300, 1311, 1312, 1313, 1314, 1315, 1316
 1317, 1318, 1319, 1320, 1321, 1322, 1323, 1324, 1325, 1326, 1327, 1328, 1329, 1330, 1331, 1332
 1333, 1334, 1335, 1336, 1337, 1338, 1339, 1340, 1341, 1342, 1343, 1344, 1345, 1346, 1347, 1348
 1349, 1350, 1351, 1352, 1353, 1354, 1355, 1386, 1387, 1388, 1389, 1390, 1391, 1392, 1393, 1394
 1395, 1396, 1397, 1398, 1399, 1400, 1401, 1402, 1403, 1404, 1405, 1406, 1407, 1408, 1409, 1410
** ... 77 like lines cut
*Nset, nset=_PickedSet13, internal
    2,    3,    5,    6,    9,   10,   11,   12,   13,   14,   15,   16,   17,   18,   19,   20
   21,   22,   23,   24,   25,   26,   27,   28,   29,   30,   31,   32,   33,   34,   35,   36
   37,   38,   40,   45,   47,   56,   57,   58,   59,   61,   63,   78,   89,   91,  100,  137
  158,  159,  160,  161,  162,  163,  164,  165,  166,  184,  185,  186,  187,  188,  189,  190
  191,  192,  206,  207,  208,  209,  210,  211,  212,  213,  214,  215,  216,  217,  218,  219
  220,  221,  222,  223,  224,  225,  226,  227,  228,  229,  230,  231,  232,  233,  234,  235
  236,  237,  238,  239,  240,  241,  242,  243,  244,  245,  246,  247,  248,  249,  250,  251
  252,  253,  254,  255,  256,  257,  258,  259,  260,  261,  262,  263,  264,  265,  266,  267
  268,  269,  270,  271,  272,  273,  274,  275,  276,  277,  278,  279,  280,  281,  282,  283
  284,  285,  286,  287,  288,  289,  290,  291,  292,  293,  294,  295,  296,  297,  298,  299
  300,  301,  302,  303,  304,  305,  306,  307,  308,  309,  310,  311,  312,  313,  314,  315
  316,  317,  318,  319,  320,  321,  322,  323,  324,  325,  326,  327,  328,  329,  330,  331
  332,  333,  334,  335,  336,  337,  338,  339,  340,  341,  342,  343,  344,  345,  346,  347
  348,  349,  350,  351,  352,  353,  354,  355,  356,  357,  358,  359,  360,  361,  362,  363
  364,  365,  366,  367,  368,  369,  370,  371,  372,  373,  374,  375,  376,  377,  378,  379
  380,  381,  382,  383,  384,  385,  386,  387,  388,  389,  390,  391,  392,  393,  394,  395
  396,  397,  398,  399,  400,  401,  402,  403,  404,  405,  406,  407,  408,  409,  410,  411
  412,  413,  414,  415,  416,  417,  418,  419,  420,  421,  422,  423,  424,  425,  426,  427
  428,  429,  430,  431,  432,  433,  434,  435,  436,  437,  438,  439,  440,  441,  442,  443
  444,  445,  446,  447,  448,  449,  450,  451,  452,  453,  454,  455,  456,  457,  458,  459
** ... 201 like lines cut
*Elset, elset=_PickedSet13, internal
   51,   52,   53,   54,   55,   56,   57,   58,   59,   60,   61,   62,   63,   64,   65,   66
   67,   68,   69,   70,   71,   72,   73,   74,   75,   76,   77,   78,   79,   80,   81,   82
   83,   84,   85,   86,   87,   88,   89,   90,   91,   92,   93,   94,   95,   96,   97,   98
   99,  100,  101,  102,  103,  104,  105,  106,  107,  108,  109,  110,  111,  112,  113,  114
  115,  116,  117,  118,  119,  120,  121,  122,  123,  124,  125,  126,  127,  128,  129,  130
  131,  132,  133,  134,  135,  136,  137,  138,  139,  140,  141,  142,  143,  144,  145,  146
  147,  148,  149,  150,  151,  152,  153,  154,  155,  156,  157,  158,  159,  160,  161,  162
  163,  164,  165,  166,  167,  168,  169,  170,  171,  172,  173,  174,  175,  176,  177,  178
  179,  180,  181,  182,  183,  184,  185,  186,  187,  188,  189,  190,  191,  192,  193,  194
  195,  196,  197,  198,  199,  200,  201,  202,  203,  204,  205,  206,  207,  208,  209,  210
  211,  212,  213,  214,  215,  216,  217,  218,  219,  220,  221,  222,  223,  224,  225,  226
  227,  228,  229,  230,  231,  232,  233,  234,  235,  236,  237,  238,  239,  240,  241,  242
  243,  244,  245,  246,  247,  248,  249,  250,  251,  252,  253,  254,  255,  256,  257,  258
  259,  260,  261,  262,  263,  264,  265,  266,  267,  268,  269,  270,  271,  272,  273,  274
  275,  276,  277,  278,  279,  280,  281,  282,  283,  284,  285,  286,  287,  288,  289,  290
  291,  292,  293,  294,  295,  296,  297,  298,  299,  300,  301,  302,  303,  304,  305,  306
  307,  308,  309,  310,  311,  312,  313,  314,  315,  316,  317,  318,  319,  320,  321,  322
  323,  324,  325,  326,  327,  328,  329,  330,  331,  332,  333,  334,  335,  336,  337,  338
  339,  340,  341,  342,  343,  344,  345,  346,  347,  348,  349,  350,  351,  352,  353,  354
  355,  356,  357,  358,  359,  360,  361,  362,  363,  364,  365,  366,  367,  368,  369,  370
** ... 80 like lines cut
*Nset, nset=Frame
    5,    6,    7,    8,    9,   10,   13,   14,   15,   16,   25,   26,   27,   28,   29,   30
   31,   32,   38,   39,   40,   41,   42,   43,   47,   48,   49,   50,   51,   52,   53,   54
   55,   58,   59,   63,   64,   65,   66,   67,   68,   69,   70,   71,   72,   73,   74,   75
   76,   77,   78,   79,   80,   81,   82,   83,   84,   85,   86,   91,   92,   93,   94,   95
   96,   97,  104,  105,  106,  107,  110,  111,  112,  113,  114,  115,  116,  117,  118,  119
  120,  123,  124,  126,  127,  128,  129,  132,  133,  135,  136,  139,  140,  141,  143,  144
  145,  147,  149,  150,  151,  152,  180,  181,  182,  183,  184,  185,  186,  187,  188,  189
  190,  191,  192,  193,  194,  195,  196,  197,  198,  199,  200,  201,  202,  203,  204,  205
  225,  226,  227,  228,  229,  230,  231,  232,  233,  234,  235,  236,  237,  238,  239,  240
  241,  242,  243,  244,  245,  246,  247,  248,  249,  250,  251,  252,  319,  320,  321,  322
  323,  324,  325,  326,  327,  328,  329,  330,  331,  332,  333,  334,  335,  336,  337,  338
  339,  340,  341,  342,  343,  344,  345,  346,  347,  348,  349,  350,  351,  352,  353,  354
  355,  487,  488,  489,  490,  491,  492,  493,  494,  495,  496,  497,  498,  499,  500,  501
  502,  503,  504,  505,  506,  507,  508,  509,  510,  511,  512,  513,  514,  515,  516,  517
  518,  519,  520,  521,  522,  523,  543,  544,  545,  546,  547,  548,  549,  550,  551,  552
  553,  554,  555,  556,  557,  558,  559,  560,  561,  562,  563,  564,  565,  566,  567,  568
  569,  570,  571,  572,  573,  574,  575,  576,  577,  578,  579,  653,  654,  655,  656,  657
  658,  659,  660,  661,  662,  663,  664,  665,  666,  667,  668,  669,  670,  671,  672,  673
  674,  675,  676,  677,  678,  679,  680,  681,  682,  683,  684,  685,  686,  687,  688,  689
  690,  691,  692,  693,  694,  695,  696,  697,  698,  699,  700,  701,  702,  703,  704,  705
** ... 211 like lines cut
*Elset, elset=Frame
  901,  902,  903,  904,  905,  906,  907,  908,  909,  910,  911,  912,  913,  914,  915,  916
  917,  918,  919,  920,  921,  922,  923,  924,  925,  926,  927,  928,  929,  930,  931,  932
  933,  934,  935,  936,  937,  938,  939,  940,  941,  942,  943,  944,  945,  946,  947,  948
  949,  950,  971,  972,  973,  974,  975,  976,  977,  978,  979,  980,  981,  982,  983,  984
  985,  986,  987,  988,  989,  990,  991,  992,  993,  994,  995,  996,  997,  998,  999, 1000
 1001, 1002, 1003, 1004, 1005, 1006, 1007, 1008, 1009, 1010, 1011, 1012, 1013, 1014, 1015, 1016
 1017, 1018, 1019, 1020, 1121, 1122, 1123, 1124, 1125, 1126, 1127, 1128, 1129, 1130, 1131, 1132
 1133, 1134, 1135, 1136, 1137, 1138, 1139, 1140, 1141, 1142, 1143, 1144, 1145, 1146, 1147, 1148
 1149, 1150, 1151, 1152, 1153, 1154, 1155, 1156, 1157, 1158, 1159, 1160, 1161, 1162, 1163, 1164
 1165, 1166, 1167, 1168, 1169, 1170, 1171, 1172, 1173, 1174, 1175, 1176, 1177, 1178, 1179, 1180
 1181, 1182, 1183, 1184, 1185, 1186, 1187, 1188, 1189, 1190, 1191, 1192, 1193, 1194, 1195, 1196
 1197, 1198, 1199, 1200, 1201, 1202, 1203, 1204, 1205, 1206, 1207, 1208, 1209, 1210, 1211, 1212
 1213, 1214, 1215, 1216, 1217, 1218, 1219, 1220, 1221, 1222, 1223, 1224, 1225, 1226, 1227, 1228
 1229, 1230, 1231, 1232, 1233, 1234, 1235, 1236, 1237, 1238, 1239, 1240, 1241, 1242, 1243, 1244
 1245, 1246, 1247, 1248, 1249, 1250, 1251, 1252, 1253, 1254, 1255, 1256, 1257, 1258, 1259, 1260
 1261, 1262, 1263, 1264, 1265, 1266, 1267, 1268, 1269, 1270, 1301, 1302, 1303, 1304, 1305, 1306
 1307, 1308, 1309, 1310, 1356, 1357, 1358, 1359, 1360, 1361, 1362, 1363, 1364, 1365, 1366, 1367
 1368, 1369, 1370, 1371, 1372, 1373, 1374, 1375, 1376, 1377, 1378, 1379, 1380, 1381, 1382, 1383
 1384, 1385, 1421, 1422, 1423, 1424, 1425, 1426, 1427, 1428, 1429, 1430, 1431, 1432, 1433, 1434
 1435, 1436, 1437, 1438, 1439, 1440, 1441, 1442, 1443, 1444, 1445, 1446, 1447, 1448, 1449, 1450
** ... 77 like lines cut
** Section: de-section
*Solid Section, elset=_PickedSet12, material=de
,
** Section: de-section
*Solid Section, elset=_PickedSet13, material=de
,
** Section: frame-section
*Solid Section, elset=Frame, material=frame
,
*End Instance
**  
*Instance, name=Leg-1, part=Leg
        0.01,       -0.002,         0.02
        0.01,       -0.002,         0.02,         0.01,        0.998,         0.02,          90.
*Node
      1, 0.0179999992,           0.,           0.
      2, 0.0179999992,           0., 0.00999999978
      3,           0.,           0., 0.00999999978
      4,           0.,           0.,           0.
      5, 0.0179999992, 0.00200000009, 0.00999999978
      6,           0., 0.00200000009, 0.00999999978
      7,           0., 0.00200000009,           0.
      8, 0.0179999992, 0.00200000009,           0.
      9, 0.0199999996, 0.00200000009, 0.00999999978
     10, 0.0199999996,           0., 0.00999999978
     11, 0.0199999996,           0.,           0.
     12, 0.0199999996, 0.00200000009,           0.
     13, 0.0179999992,           0., 0.00166666671
     14, 0.0179999992,           0., 0.00333333341
     15, 0.0179999992,           0., 0.00499999989
     16, 0.0179999992,           0., 0.00666666683
     17, 0.0179999992,           0., 0.00833333377
     18, 0.0162000004,           0., 0.00999999978
     19, 0.0143999998,           0., 0.00999999978
     20,       0.0126,           0., 0.00999999978
** ... 148 like lines cut
*Element, type=C3D8R
 1,   8,  45, 124,  60,   1,  13,  79,  40
 2,  45,  44, 125, 124,  13,  14,  80,  79
 3,  44,  43, 126, 125,  14,  15,  81,  80
 4,  43,  42, 127, 126,  15,  16,  82,  81
 5,  42,  41, 128, 127,  16,  17,  83,  82
 6,  41,   5,  54, 128,  17,   2,  18,  83
 7,  60, 124, 129,  61,  40,  79,  84,  39
 8, 124, 125, 130, 129,  79,  80,  85,  84
 9, 125, 126, 131, 130,  80,  81,  86,  85
10, 126, 127, 132, 131,  81,  82,  87,  86
11, 127, 128, 133, 132,  82,  83,  88,  87
12, 128,  54,  53, 133,  83,  18,  19,  88
13,  61, 129, 134,  62,  39,  84,  89,  38
14, 129, 130, 135, 134,  84,  85,  90,  89
15, 130, 131, 136, 135,  85,  86,  91,  90
16, 131, 132, 137, 136,  86,  87,  92,  91
17, 132, 133, 138, 137,  87,  88,  93,  92
18, 133,  53,  52, 138,  88,  19,  20,  93
19,  62, 134, 139,  63,  38,  89,  94,  37
20, 134, 135, 140, 139,  89,  90,  95,  94
** ... 46 like lines cut
*Nset, nset=Leg, generate
   1,  168,    1
*Elset, elset=Leg, generate
  1,  66,   1
** Section: frame-section
*Solid Section, elset=Leg, material=frame
,
*End Instance
**  
*Instance, name=Leg-1-lin-2-1, part=Leg
        0.01,        0.105,         0.02
        0.01,        0.105,         0.02,         0.01,        1.105,         0.02,          90.
*Node
      1, 0.0179999992,           0.,           0.
      2, 0.0179999992,           0., 0.00999999978
      3,           0.,           0., 0.00999999978
      4,           0.,           0.,           0.
      5, 0.0179999992, 0.00200000009, 0.00999999978
      6,           0., 0.00200000009, 0.00999999978
      7,           0., 0.00200000009,           0.
      8, 0.0179999992, 0.00200000009,           0.
      9, 0.0199999996, 0.00200000009, 0.00999999978
     10, 0.0199999996,           0., 0.00999999978
     11, 0.0199999996,           0.,           0.
     12, 0.0199999996, 0.00200000009,           0.
     13, 0.0179999992,           0., 0.00166666671
     14, 0.0179999992,           0., 0.00333333341
     15, 0.0179999992,           0., 0.00499999989
     16, 0.0179999992,           0., 0.00666666683
     17, 0.0179999992,           0., 0.00833333377
     18, 0.0162000004,           0., 0.00999999978
     19, 0.0143999998,           0., 0.00999999978
     20,       0.0126,           0., 0.00999999978
** ... 148 like lines cut
*Element, type=C3D8R
 1,   8,  45, 124,  60,   1,  13,  79,  40
 2,  45,  44, 125, 124,  13,  14,  80,  79
 3,  44,  43, 126, 125,  14,  15,  81,  80
 4,  43,  42, 127, 126,  15,  16,  82,  81
 5,  42,  41, 128, 127,  16,  17,  83,  82
 6,  41,   5,  54, 128,  17,   2,  18,  83
 7,  60, 124, 129,  61,  40,  79,  84,  39
 8, 124, 125, 130, 129,  79,  80,  85,  84
 9, 125, 126, 131, 130,  80,  81,  86,  85
10, 126, 127, 132, 131,  81,  82,  87,  86
11, 127, 128, 133, 132,  82,  83,  88,  87
12, 128,  54,  53, 133,  83,  18,  19,  88
13,  61, 129, 134,  62,  39,  84,  89,  38
14, 129, 130, 135, 134,  84,  85,  90,  89
15, 130, 131, 136, 135,  85,  86,  91,  90
16, 131, 132, 137, 136,  86,  87,  92,  91
17, 132, 133, 138, 137,  87,  88,  93,  92
18, 133,  53,  52, 138,  88,  19,  20,  93
19,  62, 134, 139,  63,  38,  89,  94,  37
20, 134, 135, 140, 139,  89,  90,  95,  94
** ... 46 like lines cut
*Nset, nset=Leg, generate
   1,  168,    1
*Elset, elset=Leg, generate
  1,  66,   1
** Section: frame-section
*Solid Section, elset=Leg, material=frame
,
*End Instance
**  
*Instance, name=Beam-1, part=Beam
        0.01,       -0.002,         0.12
        0.01,       -0.002,         0.12,         0.01,        0.998,         0.12,          90.
*Node
      1,           0.,           0.,           0.
      2, 0.00999999978,           0.,           0.
      3, 0.0199999996,           0.,           0.
      4, 0.0299999993,           0.,           0.
      5, 0.0399999991,           0.,           0.
      6, 0.0500000007,           0.,           0.
      7, 0.0599999987,           0.,           0.
      8, 0.0700000003,           0.,           0.
      9, 0.0799999982,           0.,           0.
     10, 0.0900000036,           0.,           0.
     11,  0.100000001,           0.,           0.
*Element, type=B31
 1,  1,  2
 2,  2,  3
 3,  3,  4
 4,  4,  5
 5,  5,  6
 6,  6,  7
 7,  7,  8
 8,  8,  9
 9,  9, 10
10, 10, 11
*Nset, nset=Set-1, generate
  1,  11,   1
*Elset, elset=Set-1, generate
  1,  10,   1
** Section: BeamSection  Profile: Profile-1
*Beam Section, elset=Set-1, material=frame, temperature=GRADIENTS, section=CIRC
0.001
0.,0.,-1.
*End Instance
**  
*Instance, name=Beam-1-lin-2-1, part=Beam
        0.02,       -0.002,         0.12
        0.02,       -0.002,         0.12,         0.02,        0.998,         0.12,          90.
*Node
      1,           0.,           0.,           0.
      2, 0.00999999978,           0.,           0.
      3, 0.0199999996,           0.,           0.
      4, 0.0299999993,           0.,           0.
      5, 0.0399999991,           0.,           0.
      6, 0.0500000007,           0.,           0.
      7, 0.0599999987,           0.,           0.
      8, 0.0700000003,           0.,           0.
      9, 0.0799999982,           0.,           0.
     10, 0.0900000036,           0.,           0.
     11,  0.100000001,           0.,           0.
*Element, type=B31
 1,  1,  2
 2,  2,  3
 3,  3,  4
 4,  4,  5
 5,  5,  6
 6,  6,  7
 7,  7,  8
 8,  8,  9
 9,  9, 10
10, 10, 11
*Nset, nset=Set-1, generate
  1,  11,   1
*Elset, elset=Set-1, generate
  1,  10,   1
** Section: BeamSection  Profile: Profile-1
*Beam Section, elset=Set-1, material=frame, temperature=GRADIENTS, section=CIRC
0.001
0.,0.,-1.
*End Instance
**  
*Instance, name=Beam-1-lin-2-1-1, part=Beam
        0.02,        0.107,         0.12
        0.02,        0.107,         0.12,         0.02,        1.107,         0.12,          90.
*Node
      1,           0.,           0.,           0.
      2, 0.00999999978,           0.,           0.
      3, 0.0199999996,           0.,           0.
      4, 0.0299999993,           0.,           0.
      5, 0.0399999991,           0.,           0.
      6, 0.0500000007,           0.,           0.
      7, 0.0599999987,           0.,           0.
      8, 0.0700000003,           0.,           0.
      9, 0.0799999982,           0.,           0.
     10, 0.0900000036,           0.,           0.
     11,  0.100000001,           0.,           0.
*Element, type=B31
 1,  1,  2
 2,  2,  3
 3,  3,  4
 4,  4,  5
 5,  5,  6
 6,  6,  7
 7,  7,  8
 8,  8,  9
 9,  9, 10
10, 10, 11
*Nset, nset=Set-1, generate
  1,  11,   1
*Elset, elset=Set-1, generate
  1,  10,   1
** Section: BeamSection  Profile: Profile-1
*Beam Section, elset=Set-1, material=frame, temperature=GRADIENTS, section=CIRC
0.001
0.,0.,-1.
*End Instance
**  
*Instance, name=Beam-1-lin-2-1-lin-2-1, part=Beam
        0.01,        0.107,         0.12
        0.01,        0.107,         0.12,         0.01,        1.107,         0.12,          90.
*Node
      1,           0.,           0.,           0.
      2, 0.00999999978,           0.,           0.
      3, 0.0199999996,           0.,           0.
      4, 0.0299999993,           0.,           0.
      5, 0.0399999991,           0.,           0.
      6, 0.0500000007,           0.,           0.
      7, 0.0599999987,           0.,           0.
      8, 0.0700000003,           0.,           0.
      9, 0.0799999982,           0.,           0.
     10, 0.0900000036,           0.,           0.
     11,  0.100000001,           0.,           0.
*Element, type=B31
 1,  1,  2
 2,  2,  3
 3,  3,  4
 4,  4,  5
 5,  5,  6
 6,  6,  7
 7,  7,  8
 8,  8,  9
 9,  9, 10
10, 10, 11
*Nset, nset=Set-1, generate
  1,  11,   1
*Elset, elset=Set-1, generate
  1,  10,   1
** Section: BeamSection  Profile: Profile-1
*Beam Section, elset=Set-1, material=frame, temperature=GRADIENTS, section=CIRC
0.001
0.,0.,-1.
*End Instance
**  
*Instance, name=Wheel-1, part=Wheel
        0.01,       -0.002,         0.12
        0.01,       -0.002,         0.12,         0.01,        0.998,         0.12,          90.
*Node
      1, 0.0095949294, 0.00281732553,           0.
      2, 0.0084125353, 0.00540640811,           0.
      3, 0.00654860726, 0.00755749596,           0.
      4, 0.00415414991, 0.00909631979,           0.
      5, 0.00142314844, 0.0098982146,           0.
      6, -0.00142314844, 0.0098982146,           0.
      7, -0.00415414991, 0.00909631979,           0.
      8, -0.00654860726, 0.00755749596,           0.
      9, -0.0084125353, 0.00540640811,           0.
     10, -0.0095949294, 0.00281732553,           0.
     11, -0.00999999978,           0.,           0.
     12, -0.0095949294, -0.00281732553,           0.
     13, -0.0084125353, -0.00540640811,           0.
     14, -0.00654860726, -0.00755749596,           0.
     15, -0.00415414991, -0.00909631979,           0.
     16, -0.00142314844, -0.0098982146,           0.
     17, 0.00142314844, -0.0098982146,           0.
     18, 0.00415414991, -0.00909631979,           0.
     19, 0.00654860726, -0.00755749596,           0.
     20, 0.0084125353, -0.00540640811,           0.
** ... 300 like lines cut
*Element, type=C3D8R
  1, 122, 121,  80,  79,  58,  57,  16,  15
  2,  78,  89, 122,  79,  14,  25,  58,  15
  3,  71,  95,  94,  72,   7,  31,  30,   8
  4, 119, 100, 104,  99,  55,  36,  40,  35
  5, 112,  99, 104, 115,  48,  35,  40,  51
  6, 115, 116, 108, 112,  51,  52,  44,  48
  7, 126,  91,  92,  93,  62,  27,  28,  29
  8, 117, 107, 128, 116,  53,  43,  64,  52
  9, 122, 106,  88, 121,  58,  42,  24,  57
 10,  96,  84,  83,  97,  32,  20,  19,  33
 11, 121,  88,  81,  80,  57,  24,  17,  16
 12, 115, 104, 113, 114,  51,  40,  49,  50
 13,  90, 107, 106, 124,  26,  43,  42,  60
 14,  95,  98, 112, 108,  31,  34,  48,  44
 15, 115, 114, 118, 116,  51,  50,  54,  52
 16, 102, 101,  65,  86,  38,  37,   1,  22
 17, 117,  88, 106, 107,  53,  24,  42,  43
 18,  97,  83,  82,  87,  33,  19,  18,  23
 19,  88,  87,  82,  81,  24,  23,  18,  17
 20,  89,  78,  77, 124,  25,  14,  13,  60
** ... 188 like lines cut
*Nset, nset=Wheel, generate
   1,  320,    1
*Elset, elset=Wheel, generate
   1,  208,    1
** Section: frame-section
*Solid Section, elset=Wheel, material=frame
,
*End Instance
**  
*Instance, name=Wheel-1-lin-2-1, part=Wheel
        0.01,        0.107,         0.12
        0.01,        0.107,         0.12,         0.01,        1.107,         0.12,          90.
*Node
      1, 0.0095949294, 0.00281732553,           0.
      2, 0.0084125353, 0.00540640811,           0.
      3, 0.00654860726, 0.00755749596,           0.
      4, 0.00415414991, 0.00909631979,           0.
      5, 0.00142314844, 0.0098982146,           0.
      6, -0.00142314844, 0.0098982146,           0.
      7, -0.00415414991, 0.00909631979,           0.
      8, -0.00654860726, 0.00755749596,           0.
      9, -0.0084125353, 0.00540640811,           0.
     10, -0.0095949294, 0.00281732553,           0.
     11, -0.00999999978,           0.,           0.
     12, -0.0095949294, -0.00281732553,           0.
     13, -0.0084125353, -0.00540640811,           0.
     14, -0.00654860726, -0.00755749596,           0.
     15, -0.00415414991, -0.00909631979,           0.
     16, -0.00142314844, -0.0098982146,           0.
     17, 0.00142314844, -0.0098982146,           0.
     18, 0.00415414991, -0.00909631979,           0.
     19, 0.00654860726, -0.00755749596,           0.
     20, 0.0084125353, -0.00540640811,           0.
** ... 300 like lines cut
*Element, type=C3D8R
  1, 122, 121,  80,  79,  58,  57,  16,  15
  2,  78,  89, 122,  79,  14,  25,  58,  15
  3,  71,  95,  94,  72,   7,  31,  30,   8
  4, 119, 100, 104,  99,  55,  36,  40,  35
  5, 112,  99, 104, 115,  48,  35,  40,  51
  6, 115, 116, 108, 112,  51,  52,  44,  48
  7, 126,  91,  92,  93,  62,  27,  28,  29
  8, 117, 107, 128, 116,  53,  43,  64,  52
  9, 122, 106,  88, 121,  58,  42,  24,  57
 10,  96,  84,  83,  97,  32,  20,  19,  33
 11, 121,  88,  81,  80,  57,  24,  17,  16
 12, 115, 104, 113, 114,  51,  40,  49,  50
 13,  90, 107, 106, 124,  26,  43,  42,  60
 14,  95,  98, 112, 108,  31,  34,  48,  44
 15, 115, 114, 118, 116,  51,  50,  54,  52
 16, 102, 101,  65,  86,  38,  37,   1,  22
 17, 117,  88, 106, 107,  53,  24,  42,  43
 18,  97,  83,  82,  87,  33,  19,  18,  23
 19,  88,  87,  82,  81,  24,  23,  18,  17
 20,  89,  78,  77, 124,  25,  14,  13,  60
** ... 188 like lines cut
*Nset, nset=Wheel, generate
   1,  320,    1
*Elset, elset=Wheel, generate
   1,  208,    1
** Section: frame-section
*Solid Section, elset=Wheel, material=frame
,
*End Instance
**  
*Instance, name=Ground-1, part=Ground
      0.2025,       -0.107,         0.13
      0.2025,       -0.107,         0.13,       0.2025,       -0.107,         1.13,          90.
*Node
      1,  0.600000024,  0.200000003, 0.00499999989
      2,  0.600000024,  0.196875006, 0.00499999989
      3,  0.600000024,  0.193749994, 0.00499999989
      4,  0.600000024,  0.190624997, 0.00499999989
      5,  0.600000024,       0.1875, 0.00499999989
      6,  0.600000024,  0.184375003, 0.00499999989
      7,  0.600000024,  0.181250006, 0.00499999989
      8,  0.600000024,  0.178124994, 0.00499999989
      9,  0.600000024,  0.174999997, 0.00499999989
     10,  0.600000024,  0.200000003, 0.00249999994
     11,  0.600000024,  0.196875006, 0.00249999994
     12,  0.600000024,  0.193749994, 0.00249999994
     13,  0.600000024,  0.190624997, 0.00249999994
     14,  0.600000024,       0.1875, 0.00249999994
     15,  0.600000024,  0.184375003, 0.00249999994
     16,  0.600000024,  0.181250006, 0.00249999994
     17,  0.600000024,  0.178124994, 0.00249999994
     18,  0.600000024,  0.174999997, 0.00249999994
     19,  0.600000024,  0.200000003,           0.
     20,  0.600000024,  0.196875006,           0.
** ... 5407 like lines cut
*Element, type=C3D8R
   1,   28,   29,   38,   37,    1,    2,   11,   10
   2,   29,   30,   39,   38,    2,    3,   12,   11
   3,   30,   31,   40,   39,    3,    4,   13,   12
   4,   31,   32,   41,   40,    4,    5,   14,   13
   5,   32,   33,   42,   41,    5,    6,   15,   14
   6,   33,   34,   43,   42,    6,    7,   16,   15
   7,   34,   35,   44,   43,    7,    8,   17,   16
   8,   35,   36,   45,   44,    8,    9,   18,   17
   9,   37,   38,   47,   46,   10,   11,   20,   19
  10,   38,   39,   48,   47,   11,   12,   21,   20
  11,   39,   40,   49,   48,   12,   13,   22,   21
  12,   40,   41,   50,   49,   13,   14,   23,   22
  13,   41,   42,   51,   50,   14,   15,   24,   23
  14,   42,   43,   52,   51,   15,   16,   25,   24
  15,   43,   44,   53,   52,   16,   17,   26,   25
  16,   44,   45,   54,   53,   17,   18,   27,   26
  17,   55,   56,   65,   64,   28,   29,   38,   37
  18,   56,   57,   66,   65,   29,   30,   39,   38
  19,   57,   58,   67,   66,   30,   31,   40,   39
  20,   58,   59,   68,   67,   31,   32,   41,   40
** ... 3180 like lines cut
*Nset, nset=Ground, generate
    1,  5427,     1
*Elset, elset=Ground, generate
    1,  3200,     1
** Section: Ground
*Solid Section, elset=Ground, material=Ground
,
*End Instance
**  
*Node
      1, 0.00999999978, -0.00200000009, 0.0199999996
*Node
      2, 0.00999999978,  0.107000001, 0.0199999996
*Node
      3, 0.00999999978, -0.00200000009, 0.0700000003
*Node
      4, 0.00999999978,  0.107000001, 0.0700000003
*Element, type=CONN3D2
1, 1, 3
*Connector Section, elset=Wire-1-Set-2
Beam,
*Element, type=CONN3D2
2, 2, 4
*Connector Section, elset=Wire-2-Set-2
Beam,
*Nset, nset=Beam-1, instance=Beam-1, generate
  1,  11,   1
*Nset, nset=Beam-1, instance=Beam-1-lin-2-1, generate
  1,  11,   1
*Nset, nset=Beam-1, instance=Wheel-1, generate
   1,  320,    1
*Elset, elset=Beam-1, instance=Beam-1, generate
  1,  10,   1
*Elset, elset=Beam-1, instance=Beam-1-lin-2-1, generate
  1,  10,   1
*Elset, elset=Beam-1, instance=Wheel-1, generate
   1,  208,    1
*Nset, nset=Beam-2, instance=Beam-1-lin-2-1-1, generate
  1,  11,   1
*Nset, nset=Beam-2, instance=Wheel-1-lin-2-1, generate
   1,  320,    1
*Nset, nset=Beam-2, instance=Beam-1-lin-2-1-lin-2-1, generate
  1,  11,   1
*Elset, elset=Beam-2, instance=Beam-1-lin-2-1-1, generate
  1,  10,   1
*Elset, elset=Beam-2, instance=Wheel-1-lin-2-1, generate
   1,  208,    1
*Elset, elset=Beam-2, instance=Beam-1-lin-2-1-lin-2-1, generate
  1,  10,   1
*Nset, nset=Leg-1, instance=Leg-1
   1,   2,   3,   4,   5,   6,   7,   8,  13,  14,  15,  16,  17,  18,  19,  20
  21,  22,  23,  24,  25,  26,  27,  28,  29,  30,  31,  32,  33,  34,  35,  36
  37,  38,  39,  40,  41,  42,  43,  44,  45,  46,  47,  48,  49,  50,  51,  52
  53,  54,  55,  56,  57,  58,  59,  60,  61,  62,  63,  64,  65,  66,  67,  68
  79,  80,  81,  82,  83,  84,  85,  86,  87,  88,  89,  90,  91,  92,  93,  94
  95,  96,  97,  98,  99, 100, 101, 102, 103, 104, 105, 106, 107, 108, 109, 110
 111, 112, 113, 114, 115, 116, 117, 118, 119, 120, 121, 122, 123, 124, 125, 126
 127, 128, 129, 130, 131, 132, 133, 134, 135, 136, 137, 138, 139, 140, 141, 142
 143, 144, 145, 146, 147, 148, 149, 150, 151, 152, 153, 154, 155, 156, 157, 158
 159, 160, 161, 162, 163, 164, 165, 166, 167, 168
*Elset, elset=Leg-1, instance=Leg-1, generate
  1,  60,   1
*Nset, nset=Leg-2, instance=Leg-1-lin-2-1
   1,   2,   3,   4,   5,   6,   7,   8,  13,  14,  15,  16,  17,  18,  19,  20
  21,  22,  23,  24,  25,  26,  27,  28,  29,  30,  31,  32,  33,  34,  35,  36
  37,  38,  39,  40,  41,  42,  43,  44,  45,  46,  47,  48,  49,  50,  51,  52
  53,  54,  55,  56,  57,  58,  59,  60,  61,  62,  63,  64,  65,  66,  67,  68
  79,  80,  81,  82,  83,  84,  85,  86,  87,  88,  89,  90,  91,  92,  93,  94
  95,  96,  97,  98,  99, 100, 101, 102, 103, 104, 105, 106, 107, 108, 109, 110
 111, 112, 113, 114, 115, 116, 117, 118, 119, 120, 121, 122, 123, 124, 125, 126
 127, 128, 129, 130, 131, 132, 133, 134, 135, 136, 137, 138, 139, 140, 141, 142
 143, 144, 145, 146, 147, 148, 149, 150, 151, 152, 153, 154, 155, 156, 157, 158
 159, 160, 161, 162, 163, 164, 165, 166, 167, 168
*Elset, elset=Leg-2, instance=Leg-1-lin-2-1, generate
  1,  60,   1
*Nset, nset=Set-11, instance=part1-1
   25,   26,   48,   49,   69,   70,   71,   72,   79,   82,   83,   84,   91,   92,   93,   94
  110,  113,  120,  141,  487,  488,  489,  490,  491,  492,  493,  494,  495,  740,  741,  742
  743,  744,  745,  746,  747,  748,  918,  919,  920,  921,  922,  923,  924,  925,  926,  927
  928,  929,  930,  931,  932,  933,  934,  935,  936,  937,  938,  939,  940,  941,  942,  943
  993,  994,  995,  996,  997,  998,  999, 1000, 1001, 1013, 1014, 1015, 1016, 1017, 1018, 1019
 1020, 1021, 1032, 1033, 1034, 1035, 1040, 1041, 1042, 1043, 1056, 1057, 1058, 1059, 1060, 1061
 1062, 1063, 1082, 1083, 1084, 1085, 1086, 1087, 1088, 1089, 1090, 1098, 1099, 1100, 1101, 1106
 1107, 1108, 1109, 1210, 1211, 1212, 1213, 1289, 1290, 1291, 1292, 1299, 1300, 1399, 1400, 1401
 1402, 1403, 1404, 1405, 1406, 1407, 1408, 1409, 1572, 1573, 1722, 1723, 1724, 1725, 2051, 2052
 4179, 4180, 4181, 4182, 4183, 4184, 4185, 4186, 4187, 4188, 4189, 4190, 4191, 4192, 4193, 4194
 4195, 4196, 4197, 4198, 4199, 4200, 4201, 4202, 4203, 4204, 4205, 4206, 4207, 4208, 4209, 4210
 4211, 4212, 4213, 4214, 4339, 4340, 4341, 4342, 4343, 4344, 4345, 4346, 4365, 4366, 4367, 4368
 4369, 4370, 4371, 4372, 4373, 4374, 4375, 4376, 4377, 4378, 4379, 4380, 4381, 4382, 4768, 4769
 4770, 4771, 4772, 4773, 4774, 4775, 4968, 4969, 4970, 4971, 4972, 4973, 4974, 4975, 4976, 4977
 4978, 4979, 4980, 4981, 4982, 4983, 4984, 4985, 5322, 5323, 5324, 5325, 5326, 5327, 5328, 5329
 6387, 6388, 6389, 6390, 6391, 6392, 6393, 6394
*Elset, elset=Set-11, instance=part1-1
 1171, 1172, 1173, 1174, 1175, 1176, 1177, 1178, 1179, 1180, 1181, 1182, 1183, 1184, 1185, 1186
 1187, 1188, 1189, 1190, 1191, 1192, 1193, 1194, 1195, 1196, 1197, 1198, 1199, 1200, 1861, 1862
 1863, 1864, 1865, 1866, 1867, 1868, 1869, 1870, 1871, 1872, 1873, 1874, 1875, 1876, 1877, 1878
 1879, 1880, 1881, 1882, 1883, 1884, 1885, 1886, 1887, 1888, 1889, 1890, 2266, 2267, 2268, 2269
 2270, 2271, 2272, 2273, 2274, 2275, 2276, 2277, 2278, 2279, 2280, 3236, 3237, 3238, 3239, 3240
 3241, 3242, 3243, 3244, 3245, 3246, 3247, 3248, 3249, 3250
*Nset, nset=Set-12, instance=part1-1
    3,    6,   10,   11,   15,   16,   18,   19,   23,   24,   26,   27,   31,   32,   34,   35
   37,   38,   40,   45,   47,   56,   57,   58,   59,   61,   63,   78,   89,   91,  100,  137
  225,  226,  227,  228,  229,  230,  231,  232,  233,  234,  235,  236,  237,  238,  239,  240
  241,  242,  243,  272,  273,  274,  275,  276,  277,  278,  279,  280,  281,  282,  283,  284
  285,  286,  287,  288,  289,  290,  328,  329,  330,  331,  332,  333,  334,  335,  336,  337
  338,  339,  340,  341,  342,  343,  344,  345,  346,  384,  385,  386,  387,  388,  389,  390
  391,  392,  393,  394,  395,  396,  397,  398,  399,  400,  401,  402,  440,  441,  442,  443
  444,  445,  446,  447,  448,  449,  450,  451,  452,  453,  454,  455,  456,  457,  458,  496
  497,  498,  499,  500,  501,  502,  503,  504,  505,  506,  507,  508,  509,  510,  511,  512
  513,  514,  552,  553,  554,  555,  556,  557,  558,  559,  560,  561,  562,  563,  564,  565
  566,  567,  568,  569,  570,  608,  609,  610,  611,  612,  613,  614,  615,  616,  617,  618
  619,  620,  621,  622,  623,  624,  625,  626, 1380, 1381, 1382, 1383, 1384, 1385, 1386, 1387
 1388, 1389, 1390, 1391, 1392, 1393, 1394, 1395, 1396, 1397, 1398, 1434, 1435, 1436, 1437, 1438
 1439, 1440, 1441, 1442, 1443, 1444, 1445, 1446, 1447, 1448, 1449, 1450, 1451, 1452, 1652, 1653
 1654, 1655, 1656, 1657, 1658, 1659, 1660, 1661, 1662, 1663, 1664, 1665, 1666, 1667, 1668, 1669
 1670, 1699, 1700, 1701, 1702, 1703, 1704, 1705, 1706, 1707, 1708, 1709, 1710, 1711, 1712, 1713
 1714, 1715, 1716, 1717, 1914, 1915, 1916, 1917, 1918, 1919, 1920, 1921, 1922, 1923, 1924, 1925
 1926, 1927, 1928, 1929, 1930, 1931, 1932, 1952, 1953, 1954, 1955, 1956, 1957, 1958, 1959, 1960
 1961, 1962, 1963, 1964, 1965, 1966, 1967, 1968, 1969, 1970, 2107, 2108, 2109, 2110, 2111, 2112
 2113, 2114, 2115, 2116, 2117, 2118, 2119, 2120, 2121, 2122, 2123, 2124, 2125, 2248, 2249, 2250
 2251, 2252, 2253, 2254, 2255, 2256, 2257, 2258, 2259, 2260, 2261, 2262, 2263, 2264, 2265, 2266
*Elset, elset=Set-12, instance=part1-1
   50,  231,  232,  233,  234,  235,  236,  237,  238,  239,  240,  241,  242,  243,  244,  245
  246,  247,  248,  249,  250,  431,  432,  433,  434,  435,  436,  437,  438,  439,  440,  441
  442,  443,  444,  445,  446,  447,  448,  449,  450,  631,  632,  633,  634,  635,  636,  637
  638,  639,  640,  641,  642,  643,  644,  645,  646,  647,  648,  649,  650,  831,  832,  833
  834,  835,  836,  837,  838,  839,  840,  841,  842,  843,  844,  845,  846,  847,  848,  849
  850,  896,  900,  970, 1066, 1070, 1120, 1298, 1325, 1355, 1395, 1396, 1471, 1475, 1476, 1477
 1478, 1479, 1480, 1481, 1482, 1483, 1484, 1485, 1486, 1487, 1488, 1489, 1490, 1491, 1492, 1493
 1494, 1495, 1701, 1702, 1703, 1704, 1705, 1706, 1707, 1708, 1709, 1710, 1711, 1712, 1713, 1714
 1715, 1716, 1717, 1718, 1719, 1720, 1731, 1761, 1766, 1771, 1776, 1781, 1786, 1791, 1796, 1801
 1806, 1811, 1816, 1821, 1826, 1831, 1836, 1841, 1846, 1851, 1856, 1891, 1895, 1920, 1921, 1922
 1923, 1924, 1925, 1926, 1927, 1928, 1929, 1930, 1931, 1932, 1933, 1934, 1935, 1936, 1937, 1938
 1939, 1940, 2120, 2186, 2261, 2265, 2349, 2446, 2450, 2451, 2471, 2476, 2481, 2486, 2491, 2496
 2501, 2506, 2511, 2516, 2521, 2526, 2531, 2536, 2541, 2546, 2551, 2556, 2561, 2566, 2571, 2601
 2606, 2611, 2616, 2621, 2626, 2631, 2636, 2641, 2646, 2651, 2656, 2661, 2666, 2671, 2676, 2681
 2686, 2691, 2696, 2706, 2811, 2812, 2813, 2814, 2815, 2816, 2817, 2818, 2819, 2820, 2821, 2822
 2823, 2824, 2825, 2826, 2827, 2828, 2829, 2830, 2840, 2845, 2850, 2855, 2860, 2865, 2870, 2875
 2880, 2885, 2890, 2895, 2900, 2905, 2910, 2915, 2920, 2925, 2930, 2935, 2936, 2941, 2946, 2951
 2956, 2961, 2966, 2971, 2976, 2981, 2986, 2991, 2996, 3001, 3006, 3011, 3016, 3021, 3026, 3031
 3116, 3117, 3118, 3119, 3120, 3121, 3122, 3123, 3124, 3125, 3126, 3127, 3128, 3129, 3130, 3131
 3132, 3133, 3134, 3135, 3216, 3217, 3218, 3219, 3220, 3221, 3222, 3223, 3224, 3225, 3226, 3227
** ... 12 like lines cut
*Nset, nset=Set-13, instance=part1-1
   44,   46,   48,   49,   71,   72,   79,   82,   83,   84,   87,   88,   93,   94,   98,  720
  721,  722,  723,  724,  725,  726,  727,  728,  740,  741,  742,  743,  744,  745,  746,  747
  748,  927,  928,  929,  930,  931,  932,  933,  934,  935,  993,  994,  995,  996,  997,  998
  999, 1000, 1001, 1013, 1014, 1015, 1016, 1017, 1018, 1019, 1020, 1021, 1032, 1033, 1034, 1035
 1040, 1041, 1042, 1043, 1044, 1045, 1046, 1047, 1073, 1074, 1075, 1076, 1077, 1078, 1079, 1080
 1081, 1098, 1099, 1100, 1101, 1106, 1107, 1108, 1109, 1119, 1120, 1121, 1122
*Elset, elset=Set-13, instance=part1-1
  951,  953,  955,  957,  959,  961,  963,  965,  967,  969, 1191, 1192, 1193, 1194, 1195, 1196
 1197, 1198, 1199, 1200, 1251, 1253, 1255, 1257, 1259, 1261, 1263, 1265, 1267, 1269, 1273, 1276
 1279, 1282, 1285, 1288, 1291, 1294, 1297, 1300, 1301, 1303, 1305, 1307, 1309, 1311, 1312, 1313
 1314, 1315, 1326, 1329, 1332, 1335, 1338, 1341, 1344, 1347, 1350, 1353, 1356, 1358, 1360, 1362
 1364, 1366, 1368, 1370, 1372, 1374, 1376, 1378, 1380, 1382, 1384, 1386, 1387, 1388, 1389, 1390
 1721, 1722, 1723, 1724, 1725, 1881, 1882, 1883, 1884, 1885, 1886, 1887, 1888, 1889, 1890, 2266
 2269, 2272, 2275, 2278, 2332, 2334, 2336, 2338, 2340, 2342, 2344, 2346, 2348, 2350, 2701, 2702
 2703, 2704, 2705, 3236, 3239, 3242, 3245, 3248
*Nset, nset=Set-14, instance=part1-1
    1,    2,    5,    8,    9,   12,   13,   14,   17,   20,   21,   22,   25,   28,   29,   30
   33,   36,   39,   43,   44,   49,   50,   52,   55,   60,   65,   68,   69,   72,   73,   76
   80,  154,  155,  156,  157,  180,  181,  182,  183,  206,  207,  208,  209,  210,  211,  212
  213,  214,  215,  216,  217,  218,  219,  220,  221,  222,  223,  224,  253,  254,  255,  256
  257,  258,  259,  260,  261,  262,  263,  264,  265,  266,  267,  268,  269,  270,  271,  300
  301,  302,  303,  304,  305,  306,  307,  308,  309,  310,  311,  312,  313,  314,  315,  316
  317,  318,  356,  357,  358,  359,  360,  361,  362,  363,  364,  365,  366,  367,  368,  369
  370,  371,  372,  373,  374,  412,  413,  414,  415,  416,  417,  418,  419,  420,  421,  422
  423,  424,  425,  426,  427,  428,  429,  430,  468,  469,  470,  471,  472,  473,  474,  475
  476,  477,  478,  479,  480,  481,  482,  483,  484,  485,  486,  524,  525,  526,  527,  528
  529,  530,  531,  532,  533,  534,  535,  536,  537,  538,  539,  540,  541,  542,  580,  581
  582,  583,  584,  585,  586,  587,  588,  589,  590,  591,  592,  593,  594,  595,  596,  597
  598,  636,  637,  638,  639,  653,  654,  655,  656,  701,  702,  703,  704,  709,  729,  780
  781,  782,  783,  788,  789,  790,  791,  792,  793,  794,  795,  818,  819,  820,  821,  844
  845,  846,  847,  914,  915,  916,  917,  938,  939,  942,  943,  988,  989,  990,  991, 1002
 1022, 1023
*Elset, elset=Set-14, instance=part1-1
    1,    2,    3,    4,    5,   51,   52,   53,   54,   55,   56,   57,   58,   59,   60,   61
   62,   63,   64,   65,   66,   67,   68,   69,   70,  251,  252,  253,  254,  255,  256,  257
  258,  259,  260,  261,  262,  263,  264,  265,  266,  267,  268,  269,  270,  451,  452,  453
  454,  455,  456,  457,  458,  459,  460,  461,  462,  463,  464,  465,  466,  467,  468,  469
  470,  651,  652,  653,  654,  655,  656,  657,  658,  659,  660,  661,  662,  663,  664,  665
  666,  667,  668,  669,  670,  851,  852,  853,  854,  855,  901,  911,  921,  931,  941,  951
  952,  971,  981,  991, 1001, 1011, 1021, 1022, 1023, 1024, 1025, 1071, 1072, 1073, 1074, 1075
 1121, 1131, 1141, 1151, 1161, 1171, 1181, 1191, 1201, 1211, 1221, 1231, 1241, 1251, 1252, 1271
 1272, 1273, 1326, 1327, 1328, 1384, 1385, 1421, 1431, 1441, 1451, 1461, 1861, 1871, 1881, 2041
 2051, 2061, 2071, 2081, 2141, 2142, 2143, 2144, 2145, 2216, 2217, 2218, 2219, 2220, 2281, 2291
 2301, 2311, 2321, 2331, 2332, 2351, 2361, 2371, 2381, 2391, 2401, 2402, 2403, 2404, 2405, 3826
 3827, 3828, 3829, 3830, 3831, 3832, 3833, 3834, 3835, 3836, 3837, 3838, 3839, 3840, 3841, 3842
 3843, 3844, 3845, 4026, 4027, 4028, 4029, 4030, 4031, 4032, 4033, 4034, 4035, 4036, 4037, 4038
 4039, 4040, 4041, 4042, 4043, 4044, 4045, 4226, 4227, 4228, 4229, 4230, 4231, 4232, 4233, 4234
 4235, 4236, 4237, 4238, 4239, 4240, 4241, 4242, 4243, 4244, 4245, 4426, 4427, 4428, 4429, 4430
 4431, 4432, 4433, 4434, 4435, 4436, 4437, 4438, 4439, 4440, 4441, 4442, 4443, 4444, 4445, 4626
 4627, 4628, 4629, 4630
*Nset, nset=Set-15, instance=part1-1
 44,
*Nset, nset=Set-16, instance=part1-1
    2,    3,    5,    6,    9,   10,   11,   12,   13,   14,   15,   16,   17,   18,   19,   20
   21,   22,   23,   24,   25,   26,   27,   28,   29,   30,   31,   32,   33,   34,   35,   36
   37,   38,   40,   45,   47,   56,   57,   58,   59,   61,   63,   78,   89,   91,  100,  137
  158,  159,  160,  161,  162,  163,  164,  165,  166,  184,  185,  186,  187,  188,  189,  190
  191,  192,  206,  207,  208,  209,  210,  211,  212,  213,  214,  215,  216,  217,  218,  219
  220,  221,  222,  223,  224,  225,  226,  227,  228,  229,  230,  231,  232,  233,  234,  235
  236,  237,  238,  239,  240,  241,  242,  243,  244,  245,  246,  247,  248,  249,  250,  251
  252,  253,  254,  255,  256,  257,  258,  259,  260,  261,  262,  263,  264,  265,  266,  267
  268,  269,  270,  271,  272,  273,  274,  275,  276,  277,  278,  279,  280,  281,  282,  283
  284,  285,  286,  287,  288,  289,  290,  291,  292,  293,  294,  295,  296,  297,  298,  299
  300,  301,  302,  303,  304,  305,  306,  307,  308,  309,  310,  311,  312,  313,  314,  315
  316,  317,  318,  319,  320,  321,  322,  323,  324,  325,  326,  327,  328,  329,  330,  331
  332,  333,  334,  335,  336,  337,  338,  339,  340,  341,  342,  343,  344,  345,  346,  347
  348,  349,  350,  351,  352,  353,  354,  355,  356,  357,  358,  359,  360,  361,  362,  363
  364,  365,  366,  367,  368,  369,  370,  371,  372,  373,  374,  375,  376,  377,  378,  379
  380,  381,  382,  383,  384,  385,  386,  387,  388,  389,  390,  391,  392,  393,  394,  395
  396,  397,  398,  399,  400,  401,  402,  403,  404,  405,  406,  407,  408,  409,  410,  411
  412,  413,  414,  415,  416,  417,  418,  419,  420,  421,  422,  423,  424,  425,  426,  427
  428,  429,  430,  431,  432,  433,  434,  435,  436,  437,  438,  439,  440,  441,  442,  443
  444,  445,  446,  447,  448,  449,  450,  451,  452,  453,  454,  455,  456,  457,  458,  459
** ... 201 like lines cut
*Elset, elset=Set-16, instance=part1-1
    5,   10,   15,   20,   25,   30,   35,   40,   45,   50,   51,   52,   53,   54,   55,   56
   57,   58,   59,   60,   61,   62,   63,   64,   65,   66,   67,   68,   69,   70,   71,   72
   73,   74,   75,   76,   77,   78,   79,   80,   81,   82,   83,   84,   85,   86,   87,   88
   89,   90,   91,   92,   93,   94,   95,   96,   97,   98,   99,  100,  101,  102,  103,  104
  105,  106,  107,  108,  109,  110,  111,  112,  113,  114,  115,  116,  117,  118,  119,  120
  121,  122,  123,  124,  125,  126,  127,  128,  129,  130,  131,  132,  133,  134,  135,  136
  137,  138,  139,  140,  141,  142,  143,  144,  145,  146,  147,  148,  149,  150,  151,  152
  153,  154,  155,  156,  157,  158,  159,  160,  161,  162,  163,  164,  165,  166,  167,  168
  169,  170,  171,  172,  173,  174,  175,  176,  177,  178,  179,  180,  181,  182,  183,  184
  185,  186,  187,  188,  189,  190,  191,  192,  193,  194,  195,  196,  197,  198,  199,  200
  201,  202,  203,  204,  205,  206,  207,  208,  209,  210,  211,  212,  213,  214,  215,  216
  217,  218,  219,  220,  221,  222,  223,  224,  225,  226,  227,  228,  229,  230,  231,  232
  233,  234,  235,  236,  237,  238,  239,  240,  241,  242,  243,  244,  245,  246,  247,  248
  249,  250,  251,  252,  253,  254,  255,  256,  257,  258,  259,  260,  261,  262,  263,  264
  265,  266,  267,  268,  269,  270,  271,  272,  273,  274,  275,  276,  277,  278,  279,  280
  281,  282,  283,  284,  285,  286,  287,  288,  289,  290,  291,  292,  293,  294,  295,  296
  297,  298,  299,  300,  301,  302,  303,  304,  305,  306,  307,  308,  309,  310,  311,  312
  313,  314,  315,  316,  317,  318,  319,  320,  321,  322,  323,  324,  325,  326,  327,  328
  329,  330,  331,  332,  333,  334,  335,  336,  337,  338,  339,  340,  341,  342,  343,  344
  345,  346,  347,  348,  349,  350,  351,  352,  353,  354,  355,  356,  357,  358,  359,  360
** ... 121 like lines cut
*Nset, nset=Set-27, instance=Ground-1
    1,    2,    3,    4,    5,    6,    7,    8,    9,   28,   29,   30,   31,   32,   33,   34
   35,   36,   55,   56,   57,   58,   59,   60,   61,   62,   63,   82,   83,   84,   85,   86
   87,   88,   89,   90,  109,  110,  111,  112,  113,  114,  115,  116,  117,  136,  137,  138
  139,  140,  141,  142,  143,  144,  163,  164,  165,  166,  167,  168,  169,  170,  171,  190
  191,  192,  193,  194,  195,  196,  197,  198,  217,  218,  219,  220,  221,  222,  223,  224
  225,  244,  245,  246,  247,  248,  249,  250,  251,  252,  271,  272,  273,  274,  275,  276
  277,  278,  279,  298,  299,  300,  301,  302,  303,  304,  305,  306,  325,  326,  327,  328
  329,  330,  331,  332,  333,  352,  353,  354,  355,  356,  357,  358,  359,  360,  379,  380
  381,  382,  383,  384,  385,  386,  387,  406,  407,  408,  409,  410,  411,  412,  413,  414
  433,  434,  435,  436,  437,  438,  439,  440,  441,  460,  461,  462,  463,  464,  465,  466
  467,  468,  487,  488,  489,  490,  491,  492,  493,  494,  495,  514,  515,  516,  517,  518
  519,  520,  521,  522,  541,  542,  543,  544,  545,  546,  547,  548,  549,  568,  569,  570
  571,  572,  573,  574,  575,  576,  595,  596,  597,  598,  599,  600,  601,  602,  603,  622
  623,  624,  625,  626,  627,  628,  629,  630,  649,  650,  651,  652,  653,  654,  655,  656
  657,  676,  677,  678,  679,  680,  681,  682,  683,  684,  703,  704,  705,  706,  707,  708
  709,  710,  711,  730,  731,  732,  733,  734,  735,  736,  737,  738,  757,  758,  759,  760
  761,  762,  763,  764,  765,  784,  785,  786,  787,  788,  789,  790,  791,  792,  811,  812
  813,  814,  815,  816,  817,  818,  819,  838,  839,  840,  841,  842,  843,  844,  845,  846
  865,  866,  867,  868,  869,  870,  871,  872,  873,  892,  893,  894,  895,  896,  897,  898
  899,  900,  919,  920,  921,  922,  923,  924,  925,  926,  927,  946,  947,  948,  949,  950
** ... 94 like lines cut
*Elset, elset=Set-27, instance=Ground-1
    1,    2,    3,    4,    5,    6,    7,    8,   17,   18,   19,   20,   21,   22,   23,   24
   33,   34,   35,   36,   37,   38,   39,   40,   49,   50,   51,   52,   53,   54,   55,   56
   65,   66,   67,   68,   69,   70,   71,   72,   81,   82,   83,   84,   85,   86,   87,   88
   97,   98,   99,  100,  101,  102,  103,  104,  113,  114,  115,  116,  117,  118,  119,  120
  129,  130,  131,  132,  133,  134,  135,  136,  145,  146,  147,  148,  149,  150,  151,  152
  161,  162,  163,  164,  165,  166,  167,  168,  177,  178,  179,  180,  181,  182,  183,  184
  193,  194,  195,  196,  197,  198,  199,  200,  209,  210,  211,  212,  213,  214,  215,  216
  225,  226,  227,  228,  229,  230,  231,  232,  241,  242,  243,  244,  245,  246,  247,  248
  257,  258,  259,  260,  261,  262,  263,  264,  273,  274,  275,  276,  277,  278,  279,  280
  289,  290,  291,  292,  293,  294,  295,  296,  305,  306,  307,  308,  309,  310,  311,  312
  321,  322,  323,  324,  325,  326,  327,  328,  337,  338,  339,  340,  341,  342,  343,  344
  353,  354,  355,  356,  357,  358,  359,  360,  369,  370,  371,  372,  373,  374,  375,  376
  385,  386,  387,  388,  389,  390,  391,  392,  401,  402,  403,  404,  405,  406,  407,  408
  417,  418,  419,  420,  421,  422,  423,  424,  433,  434,  435,  436,  437,  438,  439,  440
  449,  450,  451,  452,  453,  454,  455,  456,  465,  466,  467,  468,  469,  470,  471,  472
  481,  482,  483,  484,  485,  486,  487,  488,  497,  498,  499,  500,  501,  502,  503,  504
  513,  514,  515,  516,  517,  518,  519,  520,  529,  530,  531,  532,  533,  534,  535,  536
  545,  546,  547,  548,  549,  550,  551,  552,  561,  562,  563,  564,  565,  566,  567,  568
  577,  578,  579,  580,  581,  582,  583,  584,  593,  594,  595,  596,  597,  598,  599,  600
  609,  610,  611,  612,  613,  614,  615,  616,  625,  626,  627,  628,  629,  630,  631,  632
** ... 80 like lines cut
*Nset, nset=Wire-1-Set-2
 1, 3
*Elset, elset=Wire-1-Set-2
 1,
*Nset, nset=Wire-2-Set-2
 2, 4
*Elset, elset=Wire-2-Set-2
 2,
*Nset, nset=b_Set-28, instance=Ground-1, generate
    1,  5427,     1
*Elset, elset=b_Set-28, instance=Ground-1, generate
    1,  3200,     1
*Nset, nset=_PickedSet163, internal
 1,
*Nset, nset=_PickedSet165, internal
 2,
*Nset, nset=_PickedSet179, internal
 3,
*Nset, nset=_PickedSet181, internal
 4,
*Elset, elset=_Master-Surf-1_S1, internal, instance=part1-1
 1011, 1012, 1013, 1014, 1015, 1016, 1017, 1018, 1019, 1020, 2321, 2322, 2323, 2324, 2325, 2326
 2327, 2328, 2329, 2330
*Elset, elset=_Master-Surf-1_S6, internal, instance=part1-1, generate
 1071,  1116,     5
*Elset, elset=_Master-Surf-1_S4, internal, instance=part1-1, generate
 2145,  2190,     5
*Surface, type=ELEMENT, name=Master-Surf-1
_Master-Surf-1_S1, S1
_Master-Surf-1_S6, S6
_Master-Surf-1_S4, S4
*Elset, elset=_Master-Surf-2_S4, internal, instance=part1-1, generate
 4630,  4675,     5
*Elset, elset=_Master-Surf-2_S2, internal, instance=part1-1
 1201, 1202, 1203, 1204, 1205, 1206, 1207, 1208, 1209, 1210, 1421, 1422, 1423, 1424, 1425, 1426
 1427, 1428, 1429, 1430
*Elset, elset=_Master-Surf-2_S6, internal, instance=part1-1, generate
  1,  46,   5
*Surface, type=ELEMENT, name=Master-Surf-2
_Master-Surf-2_S4, S4
_Master-Surf-2_S2, S2
_Master-Surf-2_S6, S6
*Elset, elset=_Slave-Surf-1_S6, internal, instance=Leg-1, generate
 61,  66,   1
*Surface, type=ELEMENT, name=Slave-Surf-1
_Slave-Surf-1_S6, S6
*Elset, elset=_Slave-Surf-2_S4, internal, instance=Leg-1-lin-2-1, generate
 61,  66,   1
*Surface, type=ELEMENT, name=Slave-Surf-2
_Slave-Surf-2_S4, S4
*Elset, elset=_m_Surf-5_S5, internal, instance=Ground-1
    9,   10,   11,   12,   13,   14,   15,   16,   25,   26,   27,   28,   29,   30,   31,   32
   41,   42,   43,   44,   45,   46,   47,   48,   57,   58,   59,   60,   61,   62,   63,   64
   73,   74,   75,   76,   77,   78,   79,   80,   89,   90,   91,   92,   93,   94,   95,   96
  105,  106,  107,  108,  109,  110,  111,  112,  121,  122,  123,  124,  125,  126,  127,  128
  137,  138,  139,  140,  141,  142,  143,  144,  153,  154,  155,  156,  157,  158,  159,  160
  169,  170,  171,  172,  173,  174,  175,  176,  185,  186,  187,  188,  189,  190,  191,  192
  201,  202,  203,  204,  205,  206,  207,  208,  217,  218,  219,  220,  221,  222,  223,  224
  233,  234,  235,  236,  237,  238,  239,  240,  249,  250,  251,  252,  253,  254,  255,  256
  265,  266,  267,  268,  269,  270,  271,  272,  281,  282,  283,  284,  285,  286,  287,  288
  297,  298,  299,  300,  301,  302,  303,  304,  313,  314,  315,  316,  317,  318,  319,  320
  329,  330,  331,  332,  333,  334,  335,  336,  345,  346,  347,  348,  349,  350,  351,  352
  361,  362,  363,  364,  365,  366,  367,  368,  377,  378,  379,  380,  381,  382,  383,  384
  393,  394,  395,  396,  397,  398,  399,  400,  409,  410,  411,  412,  413,  414,  415,  416
  425,  426,  427,  428,  429,  430,  431,  432,  441,  442,  443,  444,  445,  446,  447,  448
  457,  458,  459,  460,  461,  462,  463,  464,  473,  474,  475,  476,  477,  478,  479,  480
  489,  490,  491,  492,  493,  494,  495,  496,  505,  506,  507,  508,  509,  510,  511,  512
  521,  522,  523,  524,  525,  526,  527,  528,  537,  538,  539,  540,  541,  542,  543,  544
  553,  554,  555,  556,  557,  558,  559,  560,  569,  570,  571,  572,  573,  574,  575,  576
  585,  586,  587,  588,  589,  590,  591,  592,  601,  602,  603,  604,  605,  606,  607,  608
  617,  618,  619,  620,  621,  622,  623,  624,  633,  634,  635,  636,  637,  638,  639,  640
** ... 80 like lines cut
*Surface, type=ELEMENT, name=m_Surf-5
_m_Surf-5_S5, S5
*Elset, elset=_s_Surf-5_S5, internal, instance=Wheel-1
   1,  11,  16,  19,  30,  39,  53,  63,  68,  71,  82,  91, 105, 115, 120, 123
 134, 143, 157, 167, 172, 175, 186, 195
*Elset, elset=_s_Surf-5_S6, internal, instance=Wheel-1
   2,   3,  54,  55, 106, 107, 158, 159
*Elset, elset=_s_Surf-5_S4, internal, instance=Wheel-1
  10,  18,  20,  21,  24,  26,  27,  28,  29,  31,  62,  70,  72,  73,  76,  78
  79,  80,  81,  83, 114, 122, 124, 125, 128, 130, 131, 132, 133, 135, 166, 174
 176, 177, 180, 182, 183, 184, 185, 187
*Elset, elset=_s_Surf-5_S3, internal, instance=Wheel-1
  23,  25,  34,  36,  75,  77,  86,  88, 127, 129, 138, 140, 179, 181, 190, 192
*Elset, elset=_s_Surf-5_S1, internal, instance=Wheel-1, generate
 157,  208,    1
*Elset, elset=_s_Surf-5_S2, internal, instance=Wheel-1, generate
  1,  52,   1
*Surface, type=ELEMENT, name=s_Surf-5
_s_Surf-5_S5, S5
_s_Surf-5_S6, S6
_s_Surf-5_S4, S4
_s_Surf-5_S2, S2
_s_Surf-5_S3, S3
_s_Surf-5_S1, S1
*Elset, elset=_s_Surf-7_S5, internal, instance=Wheel-1-lin-2-1
   1,  11,  16,  19,  30,  39,  53,  63,  68,  71,  82,  91, 105, 115, 120, 123
 134, 143, 157, 167, 172, 175, 186, 195
*Elset, elset=_s_Surf-7_S6, internal, instance=Wheel-1-lin-2-1
   2,   3,  54,  55, 106, 107, 158, 159
*Elset, elset=_s_Surf-7_S4, internal, instance=Wheel-1-lin-2-1
  10,  18,  20,  21,  24,  26,  27,  28,  29,  31,  62,  70,  72,  73,  76,  78
  79,  80,  81,  83, 114, 122, 124, 125, 128, 130, 131, 132, 133, 135, 166, 174
 176, 177, 180, 182, 183, 184, 185, 187
*Elset, elset=_s_Surf-7_S3, internal, instance=Wheel-1-lin-2-1
  23,  25,  34,  36,  75,  77,  86,  88, 127, 129, 138, 140, 179, 181, 190, 192
*Elset, elset=_s_Surf-7_S1, internal, instance=Wheel-1-lin-2-1, generate
 157,  208,    1
*Elset, elset=_s_Surf-7_S2, internal, instance=Wheel-1-lin-2-1, generate
  1,  52,   1
*Surface, type=ELEMENT, name=s_Surf-7
_s_Surf-7_S5, S5
_s_Surf-7_S6, S6
_s_Surf-7_S4, S4
_s_Surf-7_S2, S2
_s_Surf-7_S3, S3
_s_Surf-7_S1, S1
** Constraint: Constraint-1
*Tie, name=Constraint-1, adjust=yes
Slave-Surf-1, Master-Surf-1
** Constraint: Constraint-2
*Tie, name=Constraint-2, adjust=yes
Slave-Surf-2, Master-Surf-2
** Constraint: Constraint-3
*Rigid Body, ref node=_PickedSet163, elset=Leg-1
** Constraint: Constraint-4
*Rigid Body, ref node=_PickedSet165, elset=Leg-2
** Constraint: Constraint-5
*Rigid Body, ref node=_PickedSet179, elset=Beam-1
** Constraint: Constraint-6
*Rigid Body, ref node=_PickedSet181, elset=Beam-2
*End Assembly
** 
** MATERIALS
** 
*Material, name=Ground
*Density
7800.,
*Elastic
 2.1e+11, 0.3
*Material, name=de
*Density
960.,
*User Material, constants=9
45000.,  8.8e-08, 3.72e-11,       0.,       0.,       1.,       1.,     1.05
 0.952381,
*Material, name=frame
*Density
1120.,
*Elastic
 4.6e+07, 0.3
** 
** INTERACTION PROPERTIES
** 
*Surface Interaction, name=IntProp-1
1.,
*Friction, slip tolerance=0.005
 0.1,
*Surface Behavior, pressure-overclosure=HARD
*Surface Interaction, name=IntProp-2
1.,
*Friction, slip tolerance=0.005
5.,
*Surface Behavior, pressure-overclosure=HARD
*Surface Interaction, name=_Int-1-Prop
1.,
*Friction, slip tolerance=0.005
 0.1,
*Surface Behavior, pressure-overclosure=HARD
*Surface Interaction, name=_Int-2-Prop
1.,
*Friction, slip tolerance=0.005
5.,
*Surface Behavior, pressure-overclosure=HARD
** 
** BOUNDARY CONDITIONS
** 
** Name: Fix-Ground Type: Displacement/Rotation
*Boundary
Set-27, 1, 1
Set-27, 2, 2
Set-27, 3, 3
Set-27, 4, 4
Set-27, 5, 5
Set-27, 6, 6
** Name: Fix-Z Type: Displacement/Rotation
*Boundary
Set-15, 3, 3
** Name: Sym-X Type: Displacement/Rotation
*Boundary
Set-14, 1, 1
** Name: Sym-Y Type: Displacement/Rotation
*Boundary
Set-13, 2, 2
** 
** PREDEFINED FIELDS
** 
** Name: Predefined Field-1   Type: Temperature
*Initial Conditions, type=TEMPERATURE
Set-16, 0.
** 
** INTERACTIONS
** 
** Interaction: Int-1
*Contact Pair, interaction=_Int-1-Prop, type=SURFACE TO SURFACE
m_Surf-5, s_Surf-5
** Interaction: Int-2
*Contact Pair, interaction=_Int-2-Prop, type=SURFACE TO SURFACE
m_Surf-5, s_Surf-7
** ----------------------------------------------------------------
** 
** STEP: prestretch
** 
*Step, name=prestretch, nlgeom=YES, inc=1000000
*Static
0.01, 1., 1e-05, 0.2
** 
** INTERACTIONS
** 
** Interaction: Int-1
*Model Change, type=CONTACT PAIR, remove
m_Surf-5, s_Surf-5
** Interaction: Int-2
*Model Change, type=CONTACT PAIR, remove
m_Surf-5, s_Surf-7
** 
** OUTPUT REQUESTS
** 
*Restart, write, overlay, frequency=1
*Print, solve=NO
** 
** FIELD OUTPUT: F-Output-1
** 
*Output, field, variable=PRESELECT
** 
** HISTORY OUTPUT: H-Output-1
** 
*Output, history, variable=PRESELECT
*End Step
** ----------------------------------------------------------------
** 
** STEP: Disp-Z
** 
*Step, name=Disp-Z, nlgeom=YES, inc=1000
*Static
0.001, 1., 1e-05, 1.
** 
** BOUNDARY CONDITIONS
** 
** Name: Fix-Z Type: Displacement/Rotation
*Boundary
Set-15, 3, 3, 0.037
** 
** INTERACTIONS
** 
** Interaction: Int-1
*Model Change, type=CONTACT PAIR, add
m_Surf-5, s_Surf-5
** Interaction: Int-2
*Model Change, type=CONTACT PAIR, add
m_Surf-5, s_Surf-7
** 
** OUTPUT REQUESTS
** 
*Restart, write, overlay, frequency=1
*Print, solve=YES
** 
** FIELD OUTPUT: F-Output-1
** 
*Output, field, variable=PRESELECT
** 
** HISTORY OUTPUT: H-Output-1
** 
*Output, history, variable=PRESELECT
*End Step
** ----------------------------------------------------------------
** 
** STEP: Gravity
** 
*Step, name=Gravity, nlgeom=YES, inc=1000
*Dynamic,application=QUASI-STATIC,initial=NO
0.001,1.,1e-05
** 
** BOUNDARY CONDITIONS
** 
** Name: Fix-Ground Type: Displacement/Rotation
*Boundary, op=NEW
Set-27, 1, 1
Set-27, 2, 2
Set-27, 3, 3
Set-27, 4, 4
Set-27, 5, 5
Set-27, 6, 6
** Name: Fix-Z Type: Displacement/Rotation
*Boundary, op=NEW
** Name: Sym-X Type: Displacement/Rotation
*Boundary, op=NEW
Set-14, 1, 1
** Name: Sym-Y Type: Displacement/Rotation
*Boundary, op=NEW
** 
** LOADS
** 
** Name: Load-1   Type: Gravity
*Dload
, GRAV, 0.3, 0., 0., 1.
** 
** OUTPUT REQUESTS
** 
*Restart, write, overlay, frequency=1
** 
** FIELD OUTPUT: F-Output-1
** 
*Output, field, variable=PRESELECT, frequency=1
** 
** HISTORY OUTPUT: H-Output-1
** 
*Output, history, variable=PRESELECT, frequency=1
*End Step
** ----------------------------------------------------------------
** 
** STEP: Voltage
** 
*Step, name=Voltage, nlgeom=YES, inc=1000
*Dynamic
0.001,1.,1e-05
** 
** PREDEFINED FIELDS
** 
** Name: Predefined Field-1   Type: Temperature
*Temperature
Set-16, 2e+07
** 
** OUTPUT REQUESTS
** 
*Restart, write, frequency=0
** 
** FIELD OUTPUT: F-Output-1
** 
*Output, field, variable=PRESELECT, frequency=1
** 
** HISTORY OUTPUT: H-Output-1
** 
*Output, history, variable=PRESELECT, frequency=1
*End Step
** ----------------------------------------------------------------
** 
** STEP: Gravity-2
** 
*Step, name=Gravity-2, nlgeom=YES, inc=1000
*Dynamic,application=QUASI-STATIC,initial=NO
0.001,1.,1e-05
** 
** INTERACTIONS
** 
** Interaction: Int-1
*Change Friction, interaction=_Int-1-Prop
*Friction, slip tolerance=0.005
5.,
** Interaction: Int-2
*Change Friction, interaction=_Int-2-Prop
*Friction, slip tolerance=0.005
 0.1,
** 
** OUTPUT REQUESTS
** 
*Restart, write, frequency=0
** 
** FIELD OUTPUT: F-Output-1
** 
*Output, field, variable=PRESELECT, frequency=1
** 
** HISTORY OUTPUT: H-Output-1
** 
*Output, history, variable=PRESELECT, frequency=1
*End Step
** ----------------------------------------------------------------
** 
** STEP: CutVoltage
** 
*Step, name=CutVoltage, nlgeom=YES, inc=1000
*Dynamic,application=QUASI-STATIC,initial=NO
0.001,1.,1e-05
** 
** PREDEFINED FIELDS
** 
** Name: Predefined Field-1   Type: Temperature
*Temperature
Set-16, 0.
** 
** OUTPUT REQUESTS
** 
*Restart, write, frequency=0
** 
** FIELD OUTPUT: F-Output-1
** 
*Output, field, variable=PRESELECT, frequency=1
** 
** HISTORY OUTPUT: H-Output-1
** 
*Output, history, variable=PRESELECT, frequency=1
*End Step
